
---------- Begin Simulation Statistics ----------
simSeconds                                   0.003484                       # Number of seconds simulated (Second)
simTicks                                   3483982000                       # Number of ticks simulated (Tick)
finalTick                                  3483982000                       # Number of ticks from beginning of simulation (restored from checkpoints and never reset) (Tick)
simFreq                                  1000000000000                       # The number of ticks per simulated second ((Tick/Second))
hostSeconds                                      0.13                       # Real time elapsed on the host (Second)
hostTickRate                              25818366409                       # The number of ticks simulated per host second (ticks/s) ((Tick/Second))
hostMemory                                     736328                       # Number of bytes of host memory used (Byte)
simInsts                                       429349                       # Number of instructions simulated (Count)
simOps                                         429395                       # Number of ops (including micro ops) simulated (Count)
hostInstRate                                  3180151                       # Simulator instruction rate (inst/s) ((Count/Second))
hostOpRate                                    3180445                       # Simulator op (including micro ops) rate (op/s) ((Count/Second))
system.clk_domain.clock                          1000                       # Clock period in ticks (Tick)
system.clk_domain.voltage_domain.voltage            1                       # Voltage in Volts (Volt)
system.cpu.numCycles                          3483982                       # Number of cpu cycles simulated (Cycle)
system.cpu.cpi                               8.114134                       # CPI: cycles per instruction (core level) ((Cycle/Count))
system.cpu.ipc                               0.123242                       # IPC: instructions per cycle (core level) ((Count/Cycle))
system.cpu.numWorkItemsStarted                      0                       # Number of work items this cpu started (Count)
system.cpu.numWorkItemsCompleted                    0                       # Number of work items this cpu completed (Count)
system.cpu.commitStats0.numInsts               429372                       # Number of instructions committed (thread level) (Count)
system.cpu.commitStats0.numOps                 429418                       # Number of ops (including micro ops) committed (thread level) (Count)
system.cpu.commitStats0.numInstsNotNOP              0                       # Number of instructions committed excluding NOPs or prefetches (Count)
system.cpu.commitStats0.numOpsNotNOP                0                       # Number of Ops (including micro ops) Simulated (Count)
system.cpu.commitStats0.cpi                  8.114134                       # CPI: cycles per instruction (thread level) ((Cycle/Count))
system.cpu.commitStats0.ipc                  0.123242                       # IPC: instructions per cycle (thread level) ((Count/Cycle))
system.cpu.commitStats0.numMemRefs                  0                       # Number of memory references committed (Count)
system.cpu.commitStats0.numFpInsts                 12                       # Number of float instructions (Count)
system.cpu.commitStats0.numIntInsts            426435                       # Number of integer instructions (Count)
system.cpu.commitStats0.numLoadInsts            68661                       # Number of load instructions (Count)
system.cpu.commitStats0.numStoreInsts           56112                       # Number of store instructions (Count)
system.cpu.commitStats0.numVecInsts                 0                       # Number of vector instructions (Count)
system.cpu.commitStats0.committedInstType::No_OpClass          111      0.03%      0.03% # Class of committed instruction. (Count)
system.cpu.commitStats0.committedInstType::IntAlu       304512     70.91%     70.94% # Class of committed instruction. (Count)
system.cpu.commitStats0.committedInstType::IntMult           16      0.00%     70.94% # Class of committed instruction. (Count)
system.cpu.commitStats0.committedInstType::IntDiv            6      0.00%     70.94% # Class of committed instruction. (Count)
system.cpu.commitStats0.committedInstType::FloatAdd            0      0.00%     70.94% # Class of committed instruction. (Count)
system.cpu.commitStats0.committedInstType::FloatCmp            0      0.00%     70.94% # Class of committed instruction. (Count)
system.cpu.commitStats0.committedInstType::FloatCvt            0      0.00%     70.94% # Class of committed instruction. (Count)
system.cpu.commitStats0.committedInstType::FloatMult            0      0.00%     70.94% # Class of committed instruction. (Count)
system.cpu.commitStats0.committedInstType::FloatMultAcc            0      0.00%     70.94% # Class of committed instruction. (Count)
system.cpu.commitStats0.committedInstType::FloatDiv            0      0.00%     70.94% # Class of committed instruction. (Count)
system.cpu.commitStats0.committedInstType::FloatMisc            0      0.00%     70.94% # Class of committed instruction. (Count)
system.cpu.commitStats0.committedInstType::FloatSqrt            0      0.00%     70.94% # Class of committed instruction. (Count)
system.cpu.commitStats0.committedInstType::SimdAdd            0      0.00%     70.94% # Class of committed instruction. (Count)
system.cpu.commitStats0.committedInstType::SimdAddAcc            0      0.00%     70.94% # Class of committed instruction. (Count)
system.cpu.commitStats0.committedInstType::SimdAlu            0      0.00%     70.94% # Class of committed instruction. (Count)
system.cpu.commitStats0.committedInstType::SimdCmp            0      0.00%     70.94% # Class of committed instruction. (Count)
system.cpu.commitStats0.committedInstType::SimdCvt            0      0.00%     70.94% # Class of committed instruction. (Count)
system.cpu.commitStats0.committedInstType::SimdMisc            0      0.00%     70.94% # Class of committed instruction. (Count)
system.cpu.commitStats0.committedInstType::SimdMult            0      0.00%     70.94% # Class of committed instruction. (Count)
system.cpu.commitStats0.committedInstType::SimdMultAcc            0      0.00%     70.94% # Class of committed instruction. (Count)
system.cpu.commitStats0.committedInstType::SimdMatMultAcc            0      0.00%     70.94% # Class of committed instruction. (Count)
system.cpu.commitStats0.committedInstType::SimdShift            0      0.00%     70.94% # Class of committed instruction. (Count)
system.cpu.commitStats0.committedInstType::SimdShiftAcc            0      0.00%     70.94% # Class of committed instruction. (Count)
system.cpu.commitStats0.committedInstType::SimdDiv            0      0.00%     70.94% # Class of committed instruction. (Count)
system.cpu.commitStats0.committedInstType::SimdSqrt            0      0.00%     70.94% # Class of committed instruction. (Count)
system.cpu.commitStats0.committedInstType::SimdFloatAdd            0      0.00%     70.94% # Class of committed instruction. (Count)
system.cpu.commitStats0.committedInstType::SimdFloatAlu            0      0.00%     70.94% # Class of committed instruction. (Count)
system.cpu.commitStats0.committedInstType::SimdFloatCmp            0      0.00%     70.94% # Class of committed instruction. (Count)
system.cpu.commitStats0.committedInstType::SimdFloatCvt            0      0.00%     70.94% # Class of committed instruction. (Count)
system.cpu.commitStats0.committedInstType::SimdFloatDiv            0      0.00%     70.94% # Class of committed instruction. (Count)
system.cpu.commitStats0.committedInstType::SimdFloatMisc            0      0.00%     70.94% # Class of committed instruction. (Count)
system.cpu.commitStats0.committedInstType::SimdFloatMult            0      0.00%     70.94% # Class of committed instruction. (Count)
system.cpu.commitStats0.committedInstType::SimdFloatMultAcc            0      0.00%     70.94% # Class of committed instruction. (Count)
system.cpu.commitStats0.committedInstType::SimdFloatMatMultAcc            0      0.00%     70.94% # Class of committed instruction. (Count)
system.cpu.commitStats0.committedInstType::SimdFloatSqrt            0      0.00%     70.94% # Class of committed instruction. (Count)
system.cpu.commitStats0.committedInstType::SimdReduceAdd            0      0.00%     70.94% # Class of committed instruction. (Count)
system.cpu.commitStats0.committedInstType::SimdReduceAlu            0      0.00%     70.94% # Class of committed instruction. (Count)
system.cpu.commitStats0.committedInstType::SimdReduceCmp            0      0.00%     70.94% # Class of committed instruction. (Count)
system.cpu.commitStats0.committedInstType::SimdFloatReduceAdd            0      0.00%     70.94% # Class of committed instruction. (Count)
system.cpu.commitStats0.committedInstType::SimdFloatReduceCmp            0      0.00%     70.94% # Class of committed instruction. (Count)
system.cpu.commitStats0.committedInstType::SimdAes            0      0.00%     70.94% # Class of committed instruction. (Count)
system.cpu.commitStats0.committedInstType::SimdAesMix            0      0.00%     70.94% # Class of committed instruction. (Count)
system.cpu.commitStats0.committedInstType::SimdSha1Hash            0      0.00%     70.94% # Class of committed instruction. (Count)
system.cpu.commitStats0.committedInstType::SimdSha1Hash2            0      0.00%     70.94% # Class of committed instruction. (Count)
system.cpu.commitStats0.committedInstType::SimdSha256Hash            0      0.00%     70.94% # Class of committed instruction. (Count)
system.cpu.commitStats0.committedInstType::SimdSha256Hash2            0      0.00%     70.94% # Class of committed instruction. (Count)
system.cpu.commitStats0.committedInstType::SimdShaSigma2            0      0.00%     70.94% # Class of committed instruction. (Count)
system.cpu.commitStats0.committedInstType::SimdShaSigma3            0      0.00%     70.94% # Class of committed instruction. (Count)
system.cpu.commitStats0.committedInstType::SimdPredAlu            0      0.00%     70.94% # Class of committed instruction. (Count)
system.cpu.commitStats0.committedInstType::Matrix            0      0.00%     70.94% # Class of committed instruction. (Count)
system.cpu.commitStats0.committedInstType::MatrixMov            0      0.00%     70.94% # Class of committed instruction. (Count)
system.cpu.commitStats0.committedInstType::MatrixOP            0      0.00%     70.94% # Class of committed instruction. (Count)
system.cpu.commitStats0.committedInstType::MemRead        68673     15.99%     86.94% # Class of committed instruction. (Count)
system.cpu.commitStats0.committedInstType::MemWrite        56088     13.06%    100.00% # Class of committed instruction. (Count)
system.cpu.commitStats0.committedInstType::FloatMemRead            0      0.00%    100.00% # Class of committed instruction. (Count)
system.cpu.commitStats0.committedInstType::FloatMemWrite           12      0.00%    100.00% # Class of committed instruction. (Count)
system.cpu.commitStats0.committedInstType::IprAccess            0      0.00%    100.00% # Class of committed instruction. (Count)
system.cpu.commitStats0.committedInstType::InstPrefetch            0      0.00%    100.00% # Class of committed instruction. (Count)
system.cpu.commitStats0.committedInstType::SimdUnitStrideLoad            0      0.00%    100.00% # Class of committed instruction. (Count)
system.cpu.commitStats0.committedInstType::SimdUnitStrideStore            0      0.00%    100.00% # Class of committed instruction. (Count)
system.cpu.commitStats0.committedInstType::SimdUnitStrideMaskLoad            0      0.00%    100.00% # Class of committed instruction. (Count)
system.cpu.commitStats0.committedInstType::SimdUnitStrideMaskStore            0      0.00%    100.00% # Class of committed instruction. (Count)
system.cpu.commitStats0.committedInstType::SimdStridedLoad            0      0.00%    100.00% # Class of committed instruction. (Count)
system.cpu.commitStats0.committedInstType::SimdStridedStore            0      0.00%    100.00% # Class of committed instruction. (Count)
system.cpu.commitStats0.committedInstType::SimdIndexedLoad            0      0.00%    100.00% # Class of committed instruction. (Count)
system.cpu.commitStats0.committedInstType::SimdIndexedStore            0      0.00%    100.00% # Class of committed instruction. (Count)
system.cpu.commitStats0.committedInstType::SimdWholeRegisterLoad            0      0.00%    100.00% # Class of committed instruction. (Count)
system.cpu.commitStats0.committedInstType::SimdWholeRegisterStore            0      0.00%    100.00% # Class of committed instruction. (Count)
system.cpu.commitStats0.committedInstType::SimdUnitStrideFaultOnlyFirstLoad            0      0.00%    100.00% # Class of committed instruction. (Count)
system.cpu.commitStats0.committedInstType::SimdUnitStrideSegmentedLoad            0      0.00%    100.00% # Class of committed instruction. (Count)
system.cpu.commitStats0.committedInstType::SimdUnitStrideSegmentedStore            0      0.00%    100.00% # Class of committed instruction. (Count)
system.cpu.commitStats0.committedInstType::SimdExt            0      0.00%    100.00% # Class of committed instruction. (Count)
system.cpu.commitStats0.committedInstType::SimdFloatExt            0      0.00%    100.00% # Class of committed instruction. (Count)
system.cpu.commitStats0.committedInstType::SimdConfig            0      0.00%    100.00% # Class of committed instruction. (Count)
system.cpu.commitStats0.committedInstType::total       429418                       # Class of committed instruction. (Count)
system.cpu.commitStats0.committedControl::IsControl        82384                       # Class of control type instructions committed (Count)
system.cpu.commitStats0.committedControl::IsDirectControl        78453                       # Class of control type instructions committed (Count)
system.cpu.commitStats0.committedControl::IsIndirectControl         3931                       # Class of control type instructions committed (Count)
system.cpu.commitStats0.committedControl::IsCondControl        73551                       # Class of control type instructions committed (Count)
system.cpu.commitStats0.committedControl::IsUncondControl         8833                       # Class of control type instructions committed (Count)
system.cpu.commitStats0.committedControl::IsCall         2059                       # Class of control type instructions committed (Count)
system.cpu.commitStats0.committedControl::IsReturn         2054                       # Class of control type instructions committed (Count)
system.cpu.dcache.demandHits::cpu.data         123562                       # number of demand (read+write) hits (Count)
system.cpu.dcache.demandHits::total            123562                       # number of demand (read+write) hits (Count)
system.cpu.dcache.overallHits::cpu.data        123562                       # number of overall hits (Count)
system.cpu.dcache.overallHits::total           123562                       # number of overall hits (Count)
system.cpu.dcache.demandMisses::cpu.data         1170                       # number of demand (read+write) misses (Count)
system.cpu.dcache.demandMisses::total            1170                       # number of demand (read+write) misses (Count)
system.cpu.dcache.overallMisses::cpu.data         1170                       # number of overall misses (Count)
system.cpu.dcache.overallMisses::total           1170                       # number of overall misses (Count)
system.cpu.dcache.demandMissLatency::cpu.data    237888000                       # number of demand (read+write) miss ticks (Tick)
system.cpu.dcache.demandMissLatency::total    237888000                       # number of demand (read+write) miss ticks (Tick)
system.cpu.dcache.overallMissLatency::cpu.data    237888000                       # number of overall miss ticks (Tick)
system.cpu.dcache.overallMissLatency::total    237888000                       # number of overall miss ticks (Tick)
system.cpu.dcache.demandAccesses::cpu.data       124732                       # number of demand (read+write) accesses (Count)
system.cpu.dcache.demandAccesses::total        124732                       # number of demand (read+write) accesses (Count)
system.cpu.dcache.overallAccesses::cpu.data       124732                       # number of overall (read+write) accesses (Count)
system.cpu.dcache.overallAccesses::total       124732                       # number of overall (read+write) accesses (Count)
system.cpu.dcache.demandMissRate::cpu.data     0.009380                       # miss rate for demand accesses (Ratio)
system.cpu.dcache.demandMissRate::total      0.009380                       # miss rate for demand accesses (Ratio)
system.cpu.dcache.overallMissRate::cpu.data     0.009380                       # miss rate for overall accesses (Ratio)
system.cpu.dcache.overallMissRate::total     0.009380                       # miss rate for overall accesses (Ratio)
system.cpu.dcache.demandAvgMissLatency::cpu.data 203323.076923                       # average overall miss latency in ticks ((Tick/Count))
system.cpu.dcache.demandAvgMissLatency::total 203323.076923                       # average overall miss latency in ticks ((Tick/Count))
system.cpu.dcache.overallAvgMissLatency::cpu.data 203323.076923                       # average overall miss latency ((Tick/Count))
system.cpu.dcache.overallAvgMissLatency::total 203323.076923                       # average overall miss latency ((Tick/Count))
system.cpu.dcache.blockedCycles::no_mshrs            0                       # number of cycles access was blocked (Cycle)
system.cpu.dcache.blockedCycles::no_targets            0                       # number of cycles access was blocked (Cycle)
system.cpu.dcache.blockedCauses::no_mshrs            0                       # number of times access was blocked (Count)
system.cpu.dcache.blockedCauses::no_targets            0                       # number of times access was blocked (Count)
system.cpu.dcache.avgBlocked::no_mshrs            nan                       # average number of cycles each access was blocked ((Cycle/Count))
system.cpu.dcache.avgBlocked::no_targets          nan                       # average number of cycles each access was blocked ((Cycle/Count))
system.cpu.dcache.writebacks::writebacks          153                       # number of writebacks (Count)
system.cpu.dcache.writebacks::total               153                       # number of writebacks (Count)
system.cpu.dcache.demandMshrMisses::cpu.data         1170                       # number of demand (read+write) MSHR misses (Count)
system.cpu.dcache.demandMshrMisses::total         1170                       # number of demand (read+write) MSHR misses (Count)
system.cpu.dcache.overallMshrMisses::cpu.data         1170                       # number of overall MSHR misses (Count)
system.cpu.dcache.overallMshrMisses::total         1170                       # number of overall MSHR misses (Count)
system.cpu.dcache.demandMshrMissLatency::cpu.data    233208000                       # number of demand (read+write) MSHR miss ticks (Tick)
system.cpu.dcache.demandMshrMissLatency::total    233208000                       # number of demand (read+write) MSHR miss ticks (Tick)
system.cpu.dcache.overallMshrMissLatency::cpu.data    233208000                       # number of overall MSHR miss ticks (Tick)
system.cpu.dcache.overallMshrMissLatency::total    233208000                       # number of overall MSHR miss ticks (Tick)
system.cpu.dcache.demandMshrMissRate::cpu.data     0.009380                       # mshr miss ratio for demand accesses (Ratio)
system.cpu.dcache.demandMshrMissRate::total     0.009380                       # mshr miss ratio for demand accesses (Ratio)
system.cpu.dcache.overallMshrMissRate::cpu.data     0.009380                       # mshr miss ratio for overall accesses (Ratio)
system.cpu.dcache.overallMshrMissRate::total     0.009380                       # mshr miss ratio for overall accesses (Ratio)
system.cpu.dcache.demandAvgMshrMissLatency::cpu.data 199323.076923                       # average overall mshr miss latency ((Tick/Count))
system.cpu.dcache.demandAvgMshrMissLatency::total 199323.076923                       # average overall mshr miss latency ((Tick/Count))
system.cpu.dcache.overallAvgMshrMissLatency::cpu.data 199323.076923                       # average overall mshr miss latency ((Tick/Count))
system.cpu.dcache.overallAvgMshrMissLatency::total 199323.076923                       # average overall mshr miss latency ((Tick/Count))
system.cpu.dcache.replacements                    667                       # number of replacements (Count)
system.cpu.dcache.LoadLockedReq.hits::cpu.data           10                       # number of LoadLockedReq hits (Count)
system.cpu.dcache.LoadLockedReq.hits::total           10                       # number of LoadLockedReq hits (Count)
system.cpu.dcache.LoadLockedReq.misses::cpu.data            1                       # number of LoadLockedReq misses (Count)
system.cpu.dcache.LoadLockedReq.misses::total            1                       # number of LoadLockedReq misses (Count)
system.cpu.dcache.LoadLockedReq.missLatency::cpu.data        24000                       # number of LoadLockedReq miss ticks (Tick)
system.cpu.dcache.LoadLockedReq.missLatency::total        24000                       # number of LoadLockedReq miss ticks (Tick)
system.cpu.dcache.LoadLockedReq.accesses::cpu.data           11                       # number of LoadLockedReq accesses(hits+misses) (Count)
system.cpu.dcache.LoadLockedReq.accesses::total           11                       # number of LoadLockedReq accesses(hits+misses) (Count)
system.cpu.dcache.LoadLockedReq.missRate::cpu.data     0.090909                       # miss rate for LoadLockedReq accesses (Ratio)
system.cpu.dcache.LoadLockedReq.missRate::total     0.090909                       # miss rate for LoadLockedReq accesses (Ratio)
system.cpu.dcache.LoadLockedReq.avgMissLatency::cpu.data        24000                       # average LoadLockedReq miss latency ((Tick/Count))
system.cpu.dcache.LoadLockedReq.avgMissLatency::total        24000                       # average LoadLockedReq miss latency ((Tick/Count))
system.cpu.dcache.LoadLockedReq.mshrMisses::cpu.data            1                       # number of LoadLockedReq MSHR misses (Count)
system.cpu.dcache.LoadLockedReq.mshrMisses::total            1                       # number of LoadLockedReq MSHR misses (Count)
system.cpu.dcache.LoadLockedReq.mshrMissLatency::cpu.data        20000                       # number of LoadLockedReq MSHR miss ticks (Tick)
system.cpu.dcache.LoadLockedReq.mshrMissLatency::total        20000                       # number of LoadLockedReq MSHR miss ticks (Tick)
system.cpu.dcache.LoadLockedReq.mshrMissRate::cpu.data     0.090909                       # mshr miss rate for LoadLockedReq accesses (Ratio)
system.cpu.dcache.LoadLockedReq.mshrMissRate::total     0.090909                       # mshr miss rate for LoadLockedReq accesses (Ratio)
system.cpu.dcache.LoadLockedReq.avgMshrMissLatency::cpu.data        20000                       # average LoadLockedReq mshr miss latency ((Tick/Count))
system.cpu.dcache.LoadLockedReq.avgMshrMissLatency::total        20000                       # average LoadLockedReq mshr miss latency ((Tick/Count))
system.cpu.dcache.ReadReq.hits::cpu.data        67901                       # number of ReadReq hits (Count)
system.cpu.dcache.ReadReq.hits::total           67901                       # number of ReadReq hits (Count)
system.cpu.dcache.ReadReq.misses::cpu.data          749                       # number of ReadReq misses (Count)
system.cpu.dcache.ReadReq.misses::total           749                       # number of ReadReq misses (Count)
system.cpu.dcache.ReadReq.missLatency::cpu.data    150780000                       # number of ReadReq miss ticks (Tick)
system.cpu.dcache.ReadReq.missLatency::total    150780000                       # number of ReadReq miss ticks (Tick)
system.cpu.dcache.ReadReq.accesses::cpu.data        68650                       # number of ReadReq accesses(hits+misses) (Count)
system.cpu.dcache.ReadReq.accesses::total        68650                       # number of ReadReq accesses(hits+misses) (Count)
system.cpu.dcache.ReadReq.missRate::cpu.data     0.010910                       # miss rate for ReadReq accesses (Ratio)
system.cpu.dcache.ReadReq.missRate::total     0.010910                       # miss rate for ReadReq accesses (Ratio)
system.cpu.dcache.ReadReq.avgMissLatency::cpu.data 201308.411215                       # average ReadReq miss latency ((Tick/Count))
system.cpu.dcache.ReadReq.avgMissLatency::total 201308.411215                       # average ReadReq miss latency ((Tick/Count))
system.cpu.dcache.ReadReq.mshrMisses::cpu.data          749                       # number of ReadReq MSHR misses (Count)
system.cpu.dcache.ReadReq.mshrMisses::total          749                       # number of ReadReq MSHR misses (Count)
system.cpu.dcache.ReadReq.mshrMissLatency::cpu.data    147784000                       # number of ReadReq MSHR miss ticks (Tick)
system.cpu.dcache.ReadReq.mshrMissLatency::total    147784000                       # number of ReadReq MSHR miss ticks (Tick)
system.cpu.dcache.ReadReq.mshrMissRate::cpu.data     0.010910                       # mshr miss rate for ReadReq accesses (Ratio)
system.cpu.dcache.ReadReq.mshrMissRate::total     0.010910                       # mshr miss rate for ReadReq accesses (Ratio)
system.cpu.dcache.ReadReq.avgMshrMissLatency::cpu.data 197308.411215                       # average ReadReq mshr miss latency ((Tick/Count))
system.cpu.dcache.ReadReq.avgMshrMissLatency::total 197308.411215                       # average ReadReq mshr miss latency ((Tick/Count))
system.cpu.dcache.StoreCondReq.hits::cpu.data           11                       # number of StoreCondReq hits (Count)
system.cpu.dcache.StoreCondReq.hits::total           11                       # number of StoreCondReq hits (Count)
system.cpu.dcache.StoreCondReq.accesses::cpu.data           11                       # number of StoreCondReq accesses(hits+misses) (Count)
system.cpu.dcache.StoreCondReq.accesses::total           11                       # number of StoreCondReq accesses(hits+misses) (Count)
system.cpu.dcache.SwapReq.hits::cpu.data           10                       # number of SwapReq hits (Count)
system.cpu.dcache.SwapReq.hits::total              10                       # number of SwapReq hits (Count)
system.cpu.dcache.SwapReq.misses::cpu.data            2                       # number of SwapReq misses (Count)
system.cpu.dcache.SwapReq.misses::total             2                       # number of SwapReq misses (Count)
system.cpu.dcache.SwapReq.missLatency::cpu.data        48000                       # number of SwapReq miss ticks (Tick)
system.cpu.dcache.SwapReq.missLatency::total        48000                       # number of SwapReq miss ticks (Tick)
system.cpu.dcache.SwapReq.accesses::cpu.data           12                       # number of SwapReq accesses(hits+misses) (Count)
system.cpu.dcache.SwapReq.accesses::total           12                       # number of SwapReq accesses(hits+misses) (Count)
system.cpu.dcache.SwapReq.missRate::cpu.data     0.166667                       # miss rate for SwapReq accesses (Ratio)
system.cpu.dcache.SwapReq.missRate::total     0.166667                       # miss rate for SwapReq accesses (Ratio)
system.cpu.dcache.SwapReq.avgMissLatency::cpu.data        24000                       # average SwapReq miss latency ((Tick/Count))
system.cpu.dcache.SwapReq.avgMissLatency::total        24000                       # average SwapReq miss latency ((Tick/Count))
system.cpu.dcache.SwapReq.mshrMisses::cpu.data            2                       # number of SwapReq MSHR misses (Count)
system.cpu.dcache.SwapReq.mshrMisses::total            2                       # number of SwapReq MSHR misses (Count)
system.cpu.dcache.SwapReq.mshrMissLatency::cpu.data        40000                       # number of SwapReq MSHR miss ticks (Tick)
system.cpu.dcache.SwapReq.mshrMissLatency::total        40000                       # number of SwapReq MSHR miss ticks (Tick)
system.cpu.dcache.SwapReq.mshrMissRate::cpu.data     0.166667                       # mshr miss rate for SwapReq accesses (Ratio)
system.cpu.dcache.SwapReq.mshrMissRate::total     0.166667                       # mshr miss rate for SwapReq accesses (Ratio)
system.cpu.dcache.SwapReq.avgMshrMissLatency::cpu.data        20000                       # average SwapReq mshr miss latency ((Tick/Count))
system.cpu.dcache.SwapReq.avgMshrMissLatency::total        20000                       # average SwapReq mshr miss latency ((Tick/Count))
system.cpu.dcache.WriteReq.hits::cpu.data        55661                       # number of WriteReq hits (Count)
system.cpu.dcache.WriteReq.hits::total          55661                       # number of WriteReq hits (Count)
system.cpu.dcache.WriteReq.misses::cpu.data          421                       # number of WriteReq misses (Count)
system.cpu.dcache.WriteReq.misses::total          421                       # number of WriteReq misses (Count)
system.cpu.dcache.WriteReq.missLatency::cpu.data     87108000                       # number of WriteReq miss ticks (Tick)
system.cpu.dcache.WriteReq.missLatency::total     87108000                       # number of WriteReq miss ticks (Tick)
system.cpu.dcache.WriteReq.accesses::cpu.data        56082                       # number of WriteReq accesses(hits+misses) (Count)
system.cpu.dcache.WriteReq.accesses::total        56082                       # number of WriteReq accesses(hits+misses) (Count)
system.cpu.dcache.WriteReq.missRate::cpu.data     0.007507                       # miss rate for WriteReq accesses (Ratio)
system.cpu.dcache.WriteReq.missRate::total     0.007507                       # miss rate for WriteReq accesses (Ratio)
system.cpu.dcache.WriteReq.avgMissLatency::cpu.data 206907.363420                       # average WriteReq miss latency ((Tick/Count))
system.cpu.dcache.WriteReq.avgMissLatency::total 206907.363420                       # average WriteReq miss latency ((Tick/Count))
system.cpu.dcache.WriteReq.mshrMisses::cpu.data          421                       # number of WriteReq MSHR misses (Count)
system.cpu.dcache.WriteReq.mshrMisses::total          421                       # number of WriteReq MSHR misses (Count)
system.cpu.dcache.WriteReq.mshrMissLatency::cpu.data     85424000                       # number of WriteReq MSHR miss ticks (Tick)
system.cpu.dcache.WriteReq.mshrMissLatency::total     85424000                       # number of WriteReq MSHR miss ticks (Tick)
system.cpu.dcache.WriteReq.mshrMissRate::cpu.data     0.007507                       # mshr miss rate for WriteReq accesses (Ratio)
system.cpu.dcache.WriteReq.mshrMissRate::total     0.007507                       # mshr miss rate for WriteReq accesses (Ratio)
system.cpu.dcache.WriteReq.avgMshrMissLatency::cpu.data 202907.363420                       # average WriteReq mshr miss latency ((Tick/Count))
system.cpu.dcache.WriteReq.avgMshrMissLatency::total 202907.363420                       # average WriteReq mshr miss latency ((Tick/Count))
system.cpu.dcache.power_state.pwrStateResidencyTicks::UNDEFINED   3483982000                       # Cumulative time (in ticks) in various power states (Tick)
system.cpu.dcache.tags.tagsInUse           464.908318                       # Average ticks per tags in use ((Tick/Count))
system.cpu.dcache.tags.totalRefs               124766                       # Total number of references to valid blocks. (Count)
system.cpu.dcache.tags.sampledRefs               1173                       # Sample count of references to valid blocks. (Count)
system.cpu.dcache.tags.avgRefs             106.364876                       # Average number of references to valid blocks. ((Count/Count))
system.cpu.dcache.tags.warmupTick              658000                       # The tick when the warmup percentage was hit. (Tick)
system.cpu.dcache.tags.occupancies::cpu.data   464.908318                       # Average occupied blocks per tick, per requestor ((Count/Tick))
system.cpu.dcache.tags.avgOccs::cpu.data     0.908024                       # Average percentage of cache occupancy ((Ratio/Tick))
system.cpu.dcache.tags.avgOccs::total        0.908024                       # Average percentage of cache occupancy ((Ratio/Tick))
system.cpu.dcache.tags.occupanciesTaskId::1024          506                       # Occupied blocks per task id (Count)
system.cpu.dcache.tags.ageTaskId_1024::0            5                       # Occupied blocks per task id, per block age (Count)
system.cpu.dcache.tags.ageTaskId_1024::1           54                       # Occupied blocks per task id, per block age (Count)
system.cpu.dcache.tags.ageTaskId_1024::3          447                       # Occupied blocks per task id, per block age (Count)
system.cpu.dcache.tags.ratioOccsTaskId::1024     0.988281                       # Ratio of occupied blocks and all blocks, per task id (Ratio)
system.cpu.dcache.tags.tagAccesses             250705                       # Number of tag accesses (Count)
system.cpu.dcache.tags.dataAccesses            250705                       # Number of data accesses (Count)
system.cpu.dcache.tags.power_state.pwrStateResidencyTicks::UNDEFINED   3483982000                       # Cumulative time (in ticks) in various power states (Tick)
system.cpu.exec_context.thread_0.numMatAluAccesses            0                       # Number of matrix alu accesses (Count)
system.cpu.exec_context.thread_0.numCallsReturns         4113                       # Number of times a function call or return occured (Count)
system.cpu.exec_context.thread_0.numMatInsts            0                       # Number of matrix instructions (Count)
system.cpu.exec_context.thread_0.numIdleCycles     0.001000                       # Number of idle cycles (Cycle)
system.cpu.exec_context.thread_0.numBusyCycles 3483981.999000                       # Number of busy cycles (Cycle)
system.cpu.exec_context.thread_0.notIdleFraction     1.000000                       # Percentage of non-idle cycles (Ratio)
system.cpu.exec_context.thread_0.idleFraction     0.000000                       # Percentage of idle cycles (Ratio)
system.cpu.executeStats0.numInsts                   0                       # Number of executed instructions (Count)
system.cpu.executeStats0.numNop                     0                       # Number of nop insts executed (Count)
system.cpu.executeStats0.numBranches                0                       # Number of branches executed (Count)
system.cpu.executeStats0.numLoadInsts               0                       # Number of load instructions executed (Count)
system.cpu.executeStats0.numStoreInsts         124773                       # Number of stores executed (Count)
system.cpu.executeStats0.instRate                   0                       # Inst execution rate ((Count/Cycle))
system.cpu.executeStats0.numFpAluAccesses           12                       # Number of float alu accesses (Count)
system.cpu.executeStats0.numFpRegReads             12                       # Number of times the floating registers were read (Count)
system.cpu.executeStats0.numFpRegWrites             0                       # Number of times the floating registers were written (Count)
system.cpu.executeStats0.numIntAluAccesses       426435                       # Number of integer alu accesses (Count)
system.cpu.executeStats0.numIntRegReads        650307                       # Number of times the integer registers were read (Count)
system.cpu.executeStats0.numIntRegWrites       292898                       # Number of times the integer registers were written (Count)
system.cpu.executeStats0.numMemRefs            124773                       # Number of memory refs (Count)
system.cpu.executeStats0.numMiscRegReads           28                       # Number of times the Misc registers were read (Count)
system.cpu.executeStats0.numVecAluAccesses            0                       # Number of vector alu accesses (Count)
system.cpu.executeStats0.numDiscardedOps            0                       # Number of ops (including micro ops) which were discarded before commit (Count)
system.cpu.fetchStats0.numInsts                429372                       # Number of instructions fetched (thread level) (Count)
system.cpu.fetchStats0.numOps                  429418                       # Number of ops (including micro ops) fetched (thread level) (Count)
system.cpu.fetchStats0.fetchRate             0.123242                       # Number of inst fetches per cycle ((Count/Cycle))
system.cpu.fetchStats0.numBranches              82384                       # Number of branches fetched (Count)
system.cpu.fetchStats0.branchRate            0.023647                       # Number of branch fetches per cycle (Ratio)
system.cpu.fetchStats0.numFetchSuspends             0                       # Number of times Execute suspended instruction fetching (Count)
system.cpu.icache.demandHits::cpu.inst         667471                       # number of demand (read+write) hits (Count)
system.cpu.icache.demandHits::total            667471                       # number of demand (read+write) hits (Count)
system.cpu.icache.overallHits::cpu.inst        667471                       # number of overall hits (Count)
system.cpu.icache.overallHits::total           667471                       # number of overall hits (Count)
system.cpu.icache.demandMisses::cpu.inst          392                       # number of demand (read+write) misses (Count)
system.cpu.icache.demandMisses::total             392                       # number of demand (read+write) misses (Count)
system.cpu.icache.overallMisses::cpu.inst          392                       # number of overall misses (Count)
system.cpu.icache.overallMisses::total            392                       # number of overall misses (Count)
system.cpu.icache.demandMissLatency::cpu.inst     81766000                       # number of demand (read+write) miss ticks (Tick)
system.cpu.icache.demandMissLatency::total     81766000                       # number of demand (read+write) miss ticks (Tick)
system.cpu.icache.overallMissLatency::cpu.inst     81766000                       # number of overall miss ticks (Tick)
system.cpu.icache.overallMissLatency::total     81766000                       # number of overall miss ticks (Tick)
system.cpu.icache.demandAccesses::cpu.inst       667863                       # number of demand (read+write) accesses (Count)
system.cpu.icache.demandAccesses::total        667863                       # number of demand (read+write) accesses (Count)
system.cpu.icache.overallAccesses::cpu.inst       667863                       # number of overall (read+write) accesses (Count)
system.cpu.icache.overallAccesses::total       667863                       # number of overall (read+write) accesses (Count)
system.cpu.icache.demandMissRate::cpu.inst     0.000587                       # miss rate for demand accesses (Ratio)
system.cpu.icache.demandMissRate::total      0.000587                       # miss rate for demand accesses (Ratio)
system.cpu.icache.overallMissRate::cpu.inst     0.000587                       # miss rate for overall accesses (Ratio)
system.cpu.icache.overallMissRate::total     0.000587                       # miss rate for overall accesses (Ratio)
system.cpu.icache.demandAvgMissLatency::cpu.inst 208586.734694                       # average overall miss latency in ticks ((Tick/Count))
system.cpu.icache.demandAvgMissLatency::total 208586.734694                       # average overall miss latency in ticks ((Tick/Count))
system.cpu.icache.overallAvgMissLatency::cpu.inst 208586.734694                       # average overall miss latency ((Tick/Count))
system.cpu.icache.overallAvgMissLatency::total 208586.734694                       # average overall miss latency ((Tick/Count))
system.cpu.icache.blockedCycles::no_mshrs            0                       # number of cycles access was blocked (Cycle)
system.cpu.icache.blockedCycles::no_targets            0                       # number of cycles access was blocked (Cycle)
system.cpu.icache.blockedCauses::no_mshrs            0                       # number of times access was blocked (Count)
system.cpu.icache.blockedCauses::no_targets            0                       # number of times access was blocked (Count)
system.cpu.icache.avgBlocked::no_mshrs            nan                       # average number of cycles each access was blocked ((Cycle/Count))
system.cpu.icache.avgBlocked::no_targets          nan                       # average number of cycles each access was blocked ((Cycle/Count))
system.cpu.icache.writebacks::writebacks           66                       # number of writebacks (Count)
system.cpu.icache.writebacks::total                66                       # number of writebacks (Count)
system.cpu.icache.demandMshrMisses::cpu.inst          392                       # number of demand (read+write) MSHR misses (Count)
system.cpu.icache.demandMshrMisses::total          392                       # number of demand (read+write) MSHR misses (Count)
system.cpu.icache.overallMshrMisses::cpu.inst          392                       # number of overall MSHR misses (Count)
system.cpu.icache.overallMshrMisses::total          392                       # number of overall MSHR misses (Count)
system.cpu.icache.demandMshrMissLatency::cpu.inst     80198000                       # number of demand (read+write) MSHR miss ticks (Tick)
system.cpu.icache.demandMshrMissLatency::total     80198000                       # number of demand (read+write) MSHR miss ticks (Tick)
system.cpu.icache.overallMshrMissLatency::cpu.inst     80198000                       # number of overall MSHR miss ticks (Tick)
system.cpu.icache.overallMshrMissLatency::total     80198000                       # number of overall MSHR miss ticks (Tick)
system.cpu.icache.demandMshrMissRate::cpu.inst     0.000587                       # mshr miss ratio for demand accesses (Ratio)
system.cpu.icache.demandMshrMissRate::total     0.000587                       # mshr miss ratio for demand accesses (Ratio)
system.cpu.icache.overallMshrMissRate::cpu.inst     0.000587                       # mshr miss ratio for overall accesses (Ratio)
system.cpu.icache.overallMshrMissRate::total     0.000587                       # mshr miss ratio for overall accesses (Ratio)
system.cpu.icache.demandAvgMshrMissLatency::cpu.inst 204586.734694                       # average overall mshr miss latency ((Tick/Count))
system.cpu.icache.demandAvgMshrMissLatency::total 204586.734694                       # average overall mshr miss latency ((Tick/Count))
system.cpu.icache.overallAvgMshrMissLatency::cpu.inst 204586.734694                       # average overall mshr miss latency ((Tick/Count))
system.cpu.icache.overallAvgMshrMissLatency::total 204586.734694                       # average overall mshr miss latency ((Tick/Count))
system.cpu.icache.replacements                     66                       # number of replacements (Count)
system.cpu.icache.ReadReq.hits::cpu.inst       667471                       # number of ReadReq hits (Count)
system.cpu.icache.ReadReq.hits::total          667471                       # number of ReadReq hits (Count)
system.cpu.icache.ReadReq.misses::cpu.inst          392                       # number of ReadReq misses (Count)
system.cpu.icache.ReadReq.misses::total           392                       # number of ReadReq misses (Count)
system.cpu.icache.ReadReq.missLatency::cpu.inst     81766000                       # number of ReadReq miss ticks (Tick)
system.cpu.icache.ReadReq.missLatency::total     81766000                       # number of ReadReq miss ticks (Tick)
system.cpu.icache.ReadReq.accesses::cpu.inst       667863                       # number of ReadReq accesses(hits+misses) (Count)
system.cpu.icache.ReadReq.accesses::total       667863                       # number of ReadReq accesses(hits+misses) (Count)
system.cpu.icache.ReadReq.missRate::cpu.inst     0.000587                       # miss rate for ReadReq accesses (Ratio)
system.cpu.icache.ReadReq.missRate::total     0.000587                       # miss rate for ReadReq accesses (Ratio)
system.cpu.icache.ReadReq.avgMissLatency::cpu.inst 208586.734694                       # average ReadReq miss latency ((Tick/Count))
system.cpu.icache.ReadReq.avgMissLatency::total 208586.734694                       # average ReadReq miss latency ((Tick/Count))
system.cpu.icache.ReadReq.mshrMisses::cpu.inst          392                       # number of ReadReq MSHR misses (Count)
system.cpu.icache.ReadReq.mshrMisses::total          392                       # number of ReadReq MSHR misses (Count)
system.cpu.icache.ReadReq.mshrMissLatency::cpu.inst     80198000                       # number of ReadReq MSHR miss ticks (Tick)
system.cpu.icache.ReadReq.mshrMissLatency::total     80198000                       # number of ReadReq MSHR miss ticks (Tick)
system.cpu.icache.ReadReq.mshrMissRate::cpu.inst     0.000587                       # mshr miss rate for ReadReq accesses (Ratio)
system.cpu.icache.ReadReq.mshrMissRate::total     0.000587                       # mshr miss rate for ReadReq accesses (Ratio)
system.cpu.icache.ReadReq.avgMshrMissLatency::cpu.inst 204586.734694                       # average ReadReq mshr miss latency ((Tick/Count))
system.cpu.icache.ReadReq.avgMshrMissLatency::total 204586.734694                       # average ReadReq mshr miss latency ((Tick/Count))
system.cpu.icache.power_state.pwrStateResidencyTicks::UNDEFINED   3483982000                       # Cumulative time (in ticks) in various power states (Tick)
system.cpu.icache.tags.tagsInUse           223.032218                       # Average ticks per tags in use ((Tick/Count))
system.cpu.icache.tags.totalRefs               667863                       # Total number of references to valid blocks. (Count)
system.cpu.icache.tags.sampledRefs                392                       # Sample count of references to valid blocks. (Count)
system.cpu.icache.tags.avgRefs            1703.732143                       # Average number of references to valid blocks. ((Count/Count))
system.cpu.icache.tags.warmupTick              206000                       # The tick when the warmup percentage was hit. (Tick)
system.cpu.icache.tags.occupancies::cpu.inst   223.032218                       # Average occupied blocks per tick, per requestor ((Count/Tick))
system.cpu.icache.tags.avgOccs::cpu.inst     0.435610                       # Average percentage of cache occupancy ((Ratio/Tick))
system.cpu.icache.tags.avgOccs::total        0.435610                       # Average percentage of cache occupancy ((Ratio/Tick))
system.cpu.icache.tags.occupanciesTaskId::1024          326                       # Occupied blocks per task id (Count)
system.cpu.icache.tags.ageTaskId_1024::0           29                       # Occupied blocks per task id, per block age (Count)
system.cpu.icache.tags.ageTaskId_1024::1          107                       # Occupied blocks per task id, per block age (Count)
system.cpu.icache.tags.ageTaskId_1024::3          190                       # Occupied blocks per task id, per block age (Count)
system.cpu.icache.tags.ratioOccsTaskId::1024     0.636719                       # Ratio of occupied blocks and all blocks, per task id (Ratio)
system.cpu.icache.tags.tagAccesses            1336118                       # Number of tag accesses (Count)
system.cpu.icache.tags.dataAccesses           1336118                       # Number of data accesses (Count)
system.cpu.icache.tags.power_state.pwrStateResidencyTicks::UNDEFINED   3483982000                       # Cumulative time (in ticks) in various power states (Tick)
system.cpu.mmu.dtb.readHits                         0                       # read hits (Count)
system.cpu.mmu.dtb.readMisses                       0                       # read misses (Count)
system.cpu.mmu.dtb.readAccesses                     0                       # read accesses (Count)
system.cpu.mmu.dtb.writeHits                        0                       # write hits (Count)
system.cpu.mmu.dtb.writeMisses                      0                       # write misses (Count)
system.cpu.mmu.dtb.writeAccesses                    0                       # write accesses (Count)
system.cpu.mmu.dtb.hits                             0                       # Total TLB (read and write) hits (Count)
system.cpu.mmu.dtb.misses                           0                       # Total TLB (read and write) misses (Count)
system.cpu.mmu.dtb.accesses                         0                       # Total TLB (read and write) accesses (Count)
system.cpu.mmu.dtb.walker.num_4kb_walks             0                       # Completed page walks with 4KB pages (Count)
system.cpu.mmu.dtb.walker.num_2mb_walks             0                       # Completed page walks with 2MB pages (Count)
system.cpu.mmu.dtb.walker.power_state.pwrStateResidencyTicks::UNDEFINED   3483982000                       # Cumulative time (in ticks) in various power states (Tick)
system.cpu.mmu.itb.readHits                         0                       # read hits (Count)
system.cpu.mmu.itb.readMisses                       0                       # read misses (Count)
system.cpu.mmu.itb.readAccesses                     0                       # read accesses (Count)
system.cpu.mmu.itb.writeHits                        0                       # write hits (Count)
system.cpu.mmu.itb.writeMisses                      0                       # write misses (Count)
system.cpu.mmu.itb.writeAccesses                    0                       # write accesses (Count)
system.cpu.mmu.itb.hits                             0                       # Total TLB (read and write) hits (Count)
system.cpu.mmu.itb.misses                           0                       # Total TLB (read and write) misses (Count)
system.cpu.mmu.itb.accesses                         0                       # Total TLB (read and write) accesses (Count)
system.cpu.mmu.itb.walker.num_4kb_walks             0                       # Completed page walks with 4KB pages (Count)
system.cpu.mmu.itb.walker.num_2mb_walks             0                       # Completed page walks with 2MB pages (Count)
system.cpu.mmu.itb.walker.power_state.pwrStateResidencyTicks::UNDEFINED   3483982000                       # Cumulative time (in ticks) in various power states (Tick)
system.cpu.power_state.pwrStateResidencyTicks::ON   3483982000                       # Cumulative time (in ticks) in various power states (Tick)
system.cpu.thread_0.numInsts                        0                       # Number of Instructions committed (Count)
system.cpu.thread_0.numOps                          0                       # Number of Ops committed (Count)
system.cpu.thread_0.numMemRefs                      0                       # Number of Memory References (Count)
system.cpu.workload.numSyscalls                    16                       # Number of system calls (Count)
system.l2.demandHits::cpu.inst                      3                       # number of demand (read+write) hits (Count)
system.l2.demandHits::cpu.data                     45                       # number of demand (read+write) hits (Count)
system.l2.demandHits::total                        48                       # number of demand (read+write) hits (Count)
system.l2.overallHits::cpu.inst                     3                       # number of overall hits (Count)
system.l2.overallHits::cpu.data                    45                       # number of overall hits (Count)
system.l2.overallHits::total                       48                       # number of overall hits (Count)
system.l2.demandMisses::cpu.inst                  389                       # number of demand (read+write) misses (Count)
system.l2.demandMisses::cpu.data                 1128                       # number of demand (read+write) misses (Count)
system.l2.demandMisses::total                    1517                       # number of demand (read+write) misses (Count)
system.l2.overallMisses::cpu.inst                 389                       # number of overall misses (Count)
system.l2.overallMisses::cpu.data                1128                       # number of overall misses (Count)
system.l2.overallMisses::total                   1517                       # number of overall misses (Count)
system.l2.demandMissLatency::cpu.inst        78189000                       # number of demand (read+write) miss ticks (Tick)
system.l2.demandMissLatency::cpu.data       226728000                       # number of demand (read+write) miss ticks (Tick)
system.l2.demandMissLatency::total          304917000                       # number of demand (read+write) miss ticks (Tick)
system.l2.overallMissLatency::cpu.inst       78189000                       # number of overall miss ticks (Tick)
system.l2.overallMissLatency::cpu.data      226728000                       # number of overall miss ticks (Tick)
system.l2.overallMissLatency::total         304917000                       # number of overall miss ticks (Tick)
system.l2.demandAccesses::cpu.inst                392                       # number of demand (read+write) accesses (Count)
system.l2.demandAccesses::cpu.data               1173                       # number of demand (read+write) accesses (Count)
system.l2.demandAccesses::total                  1565                       # number of demand (read+write) accesses (Count)
system.l2.overallAccesses::cpu.inst               392                       # number of overall (read+write) accesses (Count)
system.l2.overallAccesses::cpu.data              1173                       # number of overall (read+write) accesses (Count)
system.l2.overallAccesses::total                 1565                       # number of overall (read+write) accesses (Count)
system.l2.demandMissRate::cpu.inst           0.992347                       # miss rate for demand accesses (Ratio)
system.l2.demandMissRate::cpu.data           0.961637                       # miss rate for demand accesses (Ratio)
system.l2.demandMissRate::total              0.969329                       # miss rate for demand accesses (Ratio)
system.l2.overallMissRate::cpu.inst          0.992347                       # miss rate for overall accesses (Ratio)
system.l2.overallMissRate::cpu.data          0.961637                       # miss rate for overall accesses (Ratio)
system.l2.overallMissRate::total             0.969329                       # miss rate for overall accesses (Ratio)
system.l2.demandAvgMissLatency::cpu.inst       201000                       # average overall miss latency in ticks ((Tick/Count))
system.l2.demandAvgMissLatency::cpu.data       201000                       # average overall miss latency in ticks ((Tick/Count))
system.l2.demandAvgMissLatency::total          201000                       # average overall miss latency in ticks ((Tick/Count))
system.l2.overallAvgMissLatency::cpu.inst       201000                       # average overall miss latency ((Tick/Count))
system.l2.overallAvgMissLatency::cpu.data       201000                       # average overall miss latency ((Tick/Count))
system.l2.overallAvgMissLatency::total         201000                       # average overall miss latency ((Tick/Count))
system.l2.blockedCycles::no_mshrs                   0                       # number of cycles access was blocked (Cycle)
system.l2.blockedCycles::no_targets                 0                       # number of cycles access was blocked (Cycle)
system.l2.blockedCauses::no_mshrs                   0                       # number of times access was blocked (Count)
system.l2.blockedCauses::no_targets                 0                       # number of times access was blocked (Count)
system.l2.avgBlocked::no_mshrs                    nan                       # average number of cycles each access was blocked ((Cycle/Count))
system.l2.avgBlocked::no_targets                  nan                       # average number of cycles each access was blocked ((Cycle/Count))
system.l2.demandMshrMisses::cpu.inst              389                       # number of demand (read+write) MSHR misses (Count)
system.l2.demandMshrMisses::cpu.data             1128                       # number of demand (read+write) MSHR misses (Count)
system.l2.demandMshrMisses::total                1517                       # number of demand (read+write) MSHR misses (Count)
system.l2.overallMshrMisses::cpu.inst             389                       # number of overall MSHR misses (Count)
system.l2.overallMshrMisses::cpu.data            1128                       # number of overall MSHR misses (Count)
system.l2.overallMshrMisses::total               1517                       # number of overall MSHR misses (Count)
system.l2.demandMshrMissLatency::cpu.inst     72743000                       # number of demand (read+write) MSHR miss ticks (Tick)
system.l2.demandMshrMissLatency::cpu.data    210936000                       # number of demand (read+write) MSHR miss ticks (Tick)
system.l2.demandMshrMissLatency::total      283679000                       # number of demand (read+write) MSHR miss ticks (Tick)
system.l2.overallMshrMissLatency::cpu.inst     72743000                       # number of overall MSHR miss ticks (Tick)
system.l2.overallMshrMissLatency::cpu.data    210936000                       # number of overall MSHR miss ticks (Tick)
system.l2.overallMshrMissLatency::total     283679000                       # number of overall MSHR miss ticks (Tick)
system.l2.demandMshrMissRate::cpu.inst       0.992347                       # mshr miss ratio for demand accesses (Ratio)
system.l2.demandMshrMissRate::cpu.data       0.961637                       # mshr miss ratio for demand accesses (Ratio)
system.l2.demandMshrMissRate::total          0.969329                       # mshr miss ratio for demand accesses (Ratio)
system.l2.overallMshrMissRate::cpu.inst      0.992347                       # mshr miss ratio for overall accesses (Ratio)
system.l2.overallMshrMissRate::cpu.data      0.961637                       # mshr miss ratio for overall accesses (Ratio)
system.l2.overallMshrMissRate::total         0.969329                       # mshr miss ratio for overall accesses (Ratio)
system.l2.demandAvgMshrMissLatency::cpu.inst       187000                       # average overall mshr miss latency ((Tick/Count))
system.l2.demandAvgMshrMissLatency::cpu.data       187000                       # average overall mshr miss latency ((Tick/Count))
system.l2.demandAvgMshrMissLatency::total       187000                       # average overall mshr miss latency ((Tick/Count))
system.l2.overallAvgMshrMissLatency::cpu.inst       187000                       # average overall mshr miss latency ((Tick/Count))
system.l2.overallAvgMshrMissLatency::cpu.data       187000                       # average overall mshr miss latency ((Tick/Count))
system.l2.overallAvgMshrMissLatency::total       187000                       # average overall mshr miss latency ((Tick/Count))
system.l2.replacements                              0                       # number of replacements (Count)
system.l2.ReadCleanReq.hits::cpu.inst               3                       # number of ReadCleanReq hits (Count)
system.l2.ReadCleanReq.hits::total                  3                       # number of ReadCleanReq hits (Count)
system.l2.ReadCleanReq.misses::cpu.inst           389                       # number of ReadCleanReq misses (Count)
system.l2.ReadCleanReq.misses::total              389                       # number of ReadCleanReq misses (Count)
system.l2.ReadCleanReq.missLatency::cpu.inst     78189000                       # number of ReadCleanReq miss ticks (Tick)
system.l2.ReadCleanReq.missLatency::total     78189000                       # number of ReadCleanReq miss ticks (Tick)
system.l2.ReadCleanReq.accesses::cpu.inst          392                       # number of ReadCleanReq accesses(hits+misses) (Count)
system.l2.ReadCleanReq.accesses::total            392                       # number of ReadCleanReq accesses(hits+misses) (Count)
system.l2.ReadCleanReq.missRate::cpu.inst     0.992347                       # miss rate for ReadCleanReq accesses (Ratio)
system.l2.ReadCleanReq.missRate::total       0.992347                       # miss rate for ReadCleanReq accesses (Ratio)
system.l2.ReadCleanReq.avgMissLatency::cpu.inst       201000                       # average ReadCleanReq miss latency ((Tick/Count))
system.l2.ReadCleanReq.avgMissLatency::total       201000                       # average ReadCleanReq miss latency ((Tick/Count))
system.l2.ReadCleanReq.mshrMisses::cpu.inst          389                       # number of ReadCleanReq MSHR misses (Count)
system.l2.ReadCleanReq.mshrMisses::total          389                       # number of ReadCleanReq MSHR misses (Count)
system.l2.ReadCleanReq.mshrMissLatency::cpu.inst     72743000                       # number of ReadCleanReq MSHR miss ticks (Tick)
system.l2.ReadCleanReq.mshrMissLatency::total     72743000                       # number of ReadCleanReq MSHR miss ticks (Tick)
system.l2.ReadCleanReq.mshrMissRate::cpu.inst     0.992347                       # mshr miss rate for ReadCleanReq accesses (Ratio)
system.l2.ReadCleanReq.mshrMissRate::total     0.992347                       # mshr miss rate for ReadCleanReq accesses (Ratio)
system.l2.ReadCleanReq.avgMshrMissLatency::cpu.inst       187000                       # average ReadCleanReq mshr miss latency ((Tick/Count))
system.l2.ReadCleanReq.avgMshrMissLatency::total       187000                       # average ReadCleanReq mshr miss latency ((Tick/Count))
system.l2.ReadExReq.hits::cpu.data                  9                       # number of ReadExReq hits (Count)
system.l2.ReadExReq.hits::total                     9                       # number of ReadExReq hits (Count)
system.l2.ReadExReq.misses::cpu.data              414                       # number of ReadExReq misses (Count)
system.l2.ReadExReq.misses::total                 414                       # number of ReadExReq misses (Count)
system.l2.ReadExReq.missLatency::cpu.data     83214000                       # number of ReadExReq miss ticks (Tick)
system.l2.ReadExReq.missLatency::total       83214000                       # number of ReadExReq miss ticks (Tick)
system.l2.ReadExReq.accesses::cpu.data            423                       # number of ReadExReq accesses(hits+misses) (Count)
system.l2.ReadExReq.accesses::total               423                       # number of ReadExReq accesses(hits+misses) (Count)
system.l2.ReadExReq.missRate::cpu.data       0.978723                       # miss rate for ReadExReq accesses (Ratio)
system.l2.ReadExReq.missRate::total          0.978723                       # miss rate for ReadExReq accesses (Ratio)
system.l2.ReadExReq.avgMissLatency::cpu.data       201000                       # average ReadExReq miss latency ((Tick/Count))
system.l2.ReadExReq.avgMissLatency::total       201000                       # average ReadExReq miss latency ((Tick/Count))
system.l2.ReadExReq.mshrMisses::cpu.data          414                       # number of ReadExReq MSHR misses (Count)
system.l2.ReadExReq.mshrMisses::total             414                       # number of ReadExReq MSHR misses (Count)
system.l2.ReadExReq.mshrMissLatency::cpu.data     77418000                       # number of ReadExReq MSHR miss ticks (Tick)
system.l2.ReadExReq.mshrMissLatency::total     77418000                       # number of ReadExReq MSHR miss ticks (Tick)
system.l2.ReadExReq.mshrMissRate::cpu.data     0.978723                       # mshr miss rate for ReadExReq accesses (Ratio)
system.l2.ReadExReq.mshrMissRate::total      0.978723                       # mshr miss rate for ReadExReq accesses (Ratio)
system.l2.ReadExReq.avgMshrMissLatency::cpu.data       187000                       # average ReadExReq mshr miss latency ((Tick/Count))
system.l2.ReadExReq.avgMshrMissLatency::total       187000                       # average ReadExReq mshr miss latency ((Tick/Count))
system.l2.ReadSharedReq.hits::cpu.data             36                       # number of ReadSharedReq hits (Count)
system.l2.ReadSharedReq.hits::total                36                       # number of ReadSharedReq hits (Count)
system.l2.ReadSharedReq.misses::cpu.data          714                       # number of ReadSharedReq misses (Count)
system.l2.ReadSharedReq.misses::total             714                       # number of ReadSharedReq misses (Count)
system.l2.ReadSharedReq.missLatency::cpu.data    143514000                       # number of ReadSharedReq miss ticks (Tick)
system.l2.ReadSharedReq.missLatency::total    143514000                       # number of ReadSharedReq miss ticks (Tick)
system.l2.ReadSharedReq.accesses::cpu.data          750                       # number of ReadSharedReq accesses(hits+misses) (Count)
system.l2.ReadSharedReq.accesses::total           750                       # number of ReadSharedReq accesses(hits+misses) (Count)
system.l2.ReadSharedReq.missRate::cpu.data     0.952000                       # miss rate for ReadSharedReq accesses (Ratio)
system.l2.ReadSharedReq.missRate::total      0.952000                       # miss rate for ReadSharedReq accesses (Ratio)
system.l2.ReadSharedReq.avgMissLatency::cpu.data       201000                       # average ReadSharedReq miss latency ((Tick/Count))
system.l2.ReadSharedReq.avgMissLatency::total       201000                       # average ReadSharedReq miss latency ((Tick/Count))
system.l2.ReadSharedReq.mshrMisses::cpu.data          714                       # number of ReadSharedReq MSHR misses (Count)
system.l2.ReadSharedReq.mshrMisses::total          714                       # number of ReadSharedReq MSHR misses (Count)
system.l2.ReadSharedReq.mshrMissLatency::cpu.data    133518000                       # number of ReadSharedReq MSHR miss ticks (Tick)
system.l2.ReadSharedReq.mshrMissLatency::total    133518000                       # number of ReadSharedReq MSHR miss ticks (Tick)
system.l2.ReadSharedReq.mshrMissRate::cpu.data     0.952000                       # mshr miss rate for ReadSharedReq accesses (Ratio)
system.l2.ReadSharedReq.mshrMissRate::total     0.952000                       # mshr miss rate for ReadSharedReq accesses (Ratio)
system.l2.ReadSharedReq.avgMshrMissLatency::cpu.data       187000                       # average ReadSharedReq mshr miss latency ((Tick/Count))
system.l2.ReadSharedReq.avgMshrMissLatency::total       187000                       # average ReadSharedReq mshr miss latency ((Tick/Count))
system.l2.WritebackClean.hits::writebacks           66                       # number of WritebackClean hits (Count)
system.l2.WritebackClean.hits::total               66                       # number of WritebackClean hits (Count)
system.l2.WritebackClean.accesses::writebacks           66                       # number of WritebackClean accesses(hits+misses) (Count)
system.l2.WritebackClean.accesses::total           66                       # number of WritebackClean accesses(hits+misses) (Count)
system.l2.WritebackDirty.hits::writebacks          153                       # number of WritebackDirty hits (Count)
system.l2.WritebackDirty.hits::total              153                       # number of WritebackDirty hits (Count)
system.l2.WritebackDirty.accesses::writebacks          153                       # number of WritebackDirty accesses(hits+misses) (Count)
system.l2.WritebackDirty.accesses::total          153                       # number of WritebackDirty accesses(hits+misses) (Count)
system.l2.power_state.pwrStateResidencyTicks::UNDEFINED   3483982000                       # Cumulative time (in ticks) in various power states (Tick)
system.l2.tags.tagsInUse                  1172.777179                       # Average ticks per tags in use ((Tick/Count))
system.l2.tags.totalRefs                         2297                       # Total number of references to valid blocks. (Count)
system.l2.tags.sampledRefs                       1517                       # Sample count of references to valid blocks. (Count)
system.l2.tags.avgRefs                       1.514173                       # Average number of references to valid blocks. ((Count/Count))
system.l2.tags.warmupTick                      191000                       # The tick when the warmup percentage was hit. (Tick)
system.l2.tags.occupancies::cpu.inst       244.977760                       # Average occupied blocks per tick, per requestor ((Count/Tick))
system.l2.tags.occupancies::cpu.data       927.799420                       # Average occupied blocks per tick, per requestor ((Count/Tick))
system.l2.tags.avgOccs::cpu.inst             0.059809                       # Average percentage of cache occupancy ((Ratio/Tick))
system.l2.tags.avgOccs::cpu.data             0.226514                       # Average percentage of cache occupancy ((Ratio/Tick))
system.l2.tags.avgOccs::total                0.286323                       # Average percentage of cache occupancy ((Ratio/Tick))
system.l2.tags.occupanciesTaskId::1024           1517                       # Occupied blocks per task id (Count)
system.l2.tags.ageTaskId_1024::0                   32                       # Occupied blocks per task id, per block age (Count)
system.l2.tags.ageTaskId_1024::1                  141                       # Occupied blocks per task id, per block age (Count)
system.l2.tags.ageTaskId_1024::3                 1344                       # Occupied blocks per task id, per block age (Count)
system.l2.tags.ratioOccsTaskId::1024         0.370361                       # Ratio of occupied blocks and all blocks, per task id (Ratio)
system.l2.tags.tagAccesses                      19893                       # Number of tag accesses (Count)
system.l2.tags.dataAccesses                     19893                       # Number of data accesses (Count)
system.l2.tags.power_state.pwrStateResidencyTicks::UNDEFINED   3483982000                       # Cumulative time (in ticks) in various power states (Tick)
system.l2bus.transDist::ReadResp                 1142                       # Transaction distribution (Count)
system.l2bus.transDist::WritebackDirty            153                       # Transaction distribution (Count)
system.l2bus.transDist::WritebackClean             66                       # Transaction distribution (Count)
system.l2bus.transDist::CleanEvict                514                       # Transaction distribution (Count)
system.l2bus.transDist::ReadExReq                 423                       # Transaction distribution (Count)
system.l2bus.transDist::ReadExResp                423                       # Transaction distribution (Count)
system.l2bus.transDist::ReadCleanReq              392                       # Transaction distribution (Count)
system.l2bus.transDist::ReadSharedReq             750                       # Transaction distribution (Count)
system.l2bus.pktCount_system.cpu.icache.mem_side_port::system.l2.cpu_side_port          850                       # Packet count per connected requestor and responder (Count)
system.l2bus.pktCount_system.cpu.dcache.mem_side_port::system.l2.cpu_side_port         3013                       # Packet count per connected requestor and responder (Count)
system.l2bus.pktCount::total                     3863                       # Packet count per connected requestor and responder (Count)
system.l2bus.pktSize_system.cpu.icache.mem_side_port::system.l2.cpu_side_port        29312                       # Cumulative packet size per connected requestor and responder (Byte)
system.l2bus.pktSize_system.cpu.dcache.mem_side_port::system.l2.cpu_side_port        84864                       # Cumulative packet size per connected requestor and responder (Byte)
system.l2bus.pktSize::total                    114176                       # Cumulative packet size per connected requestor and responder (Byte)
system.l2bus.snoops                                 0                       # Total snoops (Count)
system.l2bus.snoopTraffic                           0                       # Total snoop traffic (Byte)
system.l2bus.snoopFanout::samples                1565                       # Request fanout histogram (Count)
system.l2bus.snoopFanout::mean               0.000639                       # Request fanout histogram (Count)
system.l2bus.snoopFanout::stdev              0.025278                       # Request fanout histogram (Count)
system.l2bus.snoopFanout::underflows                0      0.00%      0.00% # Request fanout histogram (Count)
system.l2bus.snoopFanout::0                      1564     99.94%     99.94% # Request fanout histogram (Count)
system.l2bus.snoopFanout::1                         1      0.06%    100.00% # Request fanout histogram (Count)
system.l2bus.snoopFanout::2                         0      0.00%    100.00% # Request fanout histogram (Count)
system.l2bus.snoopFanout::overflows                 0      0.00%    100.00% # Request fanout histogram (Count)
system.l2bus.snoopFanout::min_value                 0                       # Request fanout histogram (Count)
system.l2bus.snoopFanout::max_value                 1                       # Request fanout histogram (Count)
system.l2bus.snoopFanout::total                  1565                       # Request fanout histogram (Count)
system.l2bus.power_state.pwrStateResidencyTicks::UNDEFINED   3483982000                       # Cumulative time (in ticks) in various power states (Tick)
system.l2bus.reqLayer0.occupancy              2736000                       # Layer occupancy (ticks) (Tick)
system.l2bus.reqLayer0.utilization                0.0                       # Layer utilization (Ratio)
system.l2bus.respLayer0.occupancy             1176000                       # Layer occupancy (ticks) (Tick)
system.l2bus.respLayer0.utilization               0.0                       # Layer utilization (Ratio)
system.l2bus.respLayer1.occupancy             3519000                       # Layer occupancy (ticks) (Tick)
system.l2bus.respLayer1.utilization               0.0                       # Layer utilization (Ratio)
system.l2bus.snoop_filter.totRequests            2298                       # Total number of requests made to the snoop filter. (Count)
system.l2bus.snoop_filter.hitSingleRequests          733                       # Number of requests hitting in the snoop filter with a single holder of the requested data. (Count)
system.l2bus.snoop_filter.hitMultiRequests            1                       # Number of requests hitting in the snoop filter with multiple (>1) holders of the requested data. (Count)
system.l2bus.snoop_filter.totSnoops                 0                       # Total number of snoops made to the snoop filter. (Count)
system.l2bus.snoop_filter.hitSingleSnoops            0                       # Number of snoops hitting in the snoop filter with a single holder of the requested data. (Count)
system.l2bus.snoop_filter.hitMultiSnoops            0                       # Number of snoops hitting in the snoop filter with multiple (>1) holders of the requested data. (Count)
system.l3.demandMisses::cpu.inst                  389                       # number of demand (read+write) misses (Count)
system.l3.demandMisses::cpu.data                 1128                       # number of demand (read+write) misses (Count)
system.l3.demandMisses::total                    1517                       # number of demand (read+write) misses (Count)
system.l3.overallMisses::cpu.inst                 389                       # number of overall misses (Count)
system.l3.overallMisses::cpu.data                1128                       # number of overall misses (Count)
system.l3.overallMisses::total                   1517                       # number of overall misses (Count)
system.l3.demandMissLatency::cpu.inst        66519000                       # number of demand (read+write) miss ticks (Tick)
system.l3.demandMissLatency::cpu.data       192888000                       # number of demand (read+write) miss ticks (Tick)
system.l3.demandMissLatency::total          259407000                       # number of demand (read+write) miss ticks (Tick)
system.l3.overallMissLatency::cpu.inst       66519000                       # number of overall miss ticks (Tick)
system.l3.overallMissLatency::cpu.data      192888000                       # number of overall miss ticks (Tick)
system.l3.overallMissLatency::total         259407000                       # number of overall miss ticks (Tick)
system.l3.demandAccesses::cpu.inst                389                       # number of demand (read+write) accesses (Count)
system.l3.demandAccesses::cpu.data               1128                       # number of demand (read+write) accesses (Count)
system.l3.demandAccesses::total                  1517                       # number of demand (read+write) accesses (Count)
system.l3.overallAccesses::cpu.inst               389                       # number of overall (read+write) accesses (Count)
system.l3.overallAccesses::cpu.data              1128                       # number of overall (read+write) accesses (Count)
system.l3.overallAccesses::total                 1517                       # number of overall (read+write) accesses (Count)
system.l3.demandMissRate::cpu.inst                  1                       # miss rate for demand accesses (Ratio)
system.l3.demandMissRate::cpu.data                  1                       # miss rate for demand accesses (Ratio)
system.l3.demandMissRate::total                     1                       # miss rate for demand accesses (Ratio)
system.l3.overallMissRate::cpu.inst                 1                       # miss rate for overall accesses (Ratio)
system.l3.overallMissRate::cpu.data                 1                       # miss rate for overall accesses (Ratio)
system.l3.overallMissRate::total                    1                       # miss rate for overall accesses (Ratio)
system.l3.demandAvgMissLatency::cpu.inst       171000                       # average overall miss latency in ticks ((Tick/Count))
system.l3.demandAvgMissLatency::cpu.data       171000                       # average overall miss latency in ticks ((Tick/Count))
system.l3.demandAvgMissLatency::total          171000                       # average overall miss latency in ticks ((Tick/Count))
system.l3.overallAvgMissLatency::cpu.inst       171000                       # average overall miss latency ((Tick/Count))
system.l3.overallAvgMissLatency::cpu.data       171000                       # average overall miss latency ((Tick/Count))
system.l3.overallAvgMissLatency::total         171000                       # average overall miss latency ((Tick/Count))
system.l3.blockedCycles::no_mshrs                   0                       # number of cycles access was blocked (Cycle)
[...]
system.l3.demandMshrMissRate::cpu.data              1                       # mshr miss ratio for demand accesses (Ratio)
system.l3.demandMshrMissRate::total                 1                       # mshr miss ratio for demand accesses (Ratio)
system.l3.overallMshrMissRate::cpu.inst             1                       # mshr miss ratio for overall accesses (Ratio)
system.l3.overallMshrMissRate::cpu.data             1                       # mshr miss ratio for overall accesses (Ratio)
system.l3.overallMshrMissRate::total                1                       # mshr miss ratio for overall accesses (Ratio)
system.l3.demandAvgMshrMissLatency::cpu.inst       151000                       # average overall mshr miss latency ((Tick/Count))
system.l3.demandAvgMshrMissLatency::cpu.data       151000                       # average overall mshr miss latency ((Tick/Count))
system.l3.demandAvgMshrMissLatency::total       151000                       # average overall mshr miss latency ((Tick/Count))
system.l3.overallAvgMshrMissLatency::cpu.inst       151000                       # average overall mshr miss latency ((Tick/Count))
system.l3.overallAvgMshrMissLatency::cpu.data       151000                       # average overall mshr miss latency ((Tick/Count))
system.l3.overallAvgMshrMissLatency::total       151000                       # average overall mshr miss latency ((Tick/Count))
system.l3.replacements                              0                       # number of replacements (Count)
system.l3.ReadExReq.misses::cpu.data              414                       # number of ReadExReq misses (Count)
system.l3.ReadExReq.misses::total                 414                       # number of ReadExReq misses (Count)
system.l3.ReadExReq.missLatency::cpu.data     70794000                       # number of ReadExReq miss ticks (Tick)
system.l3.ReadExReq.missLatency::total       70794000                       # number of ReadExReq miss ticks (Tick)
system.l3.ReadExReq.accesses::cpu.data            414                       # number of ReadExReq accesses(hits+misses) (Count)
system.l3.ReadExReq.accesses::total               414                       # number of ReadExReq accesses(hits+misses) (Count)
system.l3.ReadExReq.missRate::cpu.data              1                       # miss rate for ReadExReq accesses (Ratio)
system.l3.ReadExReq.missRate::total                 1                       # miss rate for ReadExReq accesses (Ratio)
system.l3.ReadExReq.avgMissLatency::cpu.data       171000                       # average ReadExReq miss latency ((Tick/Count))
system.l3.ReadExReq.avgMissLatency::total       171000                       # average ReadExReq miss latency ((Tick/Count))
system.l3.ReadExReq.mshrMisses::cpu.data          414                       # number of ReadExReq MSHR misses (Count)
system.l3.ReadExReq.mshrMisses::total             414                       # number of ReadExReq MSHR misses (Count)
system.l3.ReadExReq.mshrMissLatency::cpu.data     62514000                       # number of ReadExReq MSHR miss ticks (Tick)
system.l3.ReadExReq.mshrMissLatency::total     62514000                       # number of ReadExReq MSHR miss ticks (Tick)
system.l3.ReadExReq.mshrMissRate::cpu.data            1                       # mshr miss rate for ReadExReq accesses (Ratio)
system.l3.ReadExReq.mshrMissRate::total             1                       # mshr miss rate for ReadExReq accesses (Ratio)
system.l3.ReadExReq.avgMshrMissLatency::cpu.data       151000                       # average ReadExReq mshr miss latency ((Tick/Count))
system.l3.ReadExReq.avgMshrMissLatency::total       151000                       # average ReadExReq mshr miss latency ((Tick/Count))
system.l3.ReadSharedReq.misses::cpu.inst          389                       # number of ReadSharedReq misses (Count)
system.l3.ReadSharedReq.misses::cpu.data          714                       # number of ReadSharedReq misses (Count)
system.l3.ReadSharedReq.misses::total            1103                       # number of ReadSharedReq misses (Count)
system.l3.ReadSharedReq.missLatency::cpu.inst     66519000                       # number of ReadSharedReq miss ticks (Tick)
system.l3.ReadSharedReq.missLatency::cpu.data    122094000                       # number of ReadSharedReq miss ticks (Tick)
system.l3.ReadSharedReq.missLatency::total    188613000                       # number of ReadSharedReq miss ticks (Tick)
system.l3.ReadSharedReq.accesses::cpu.inst          389                       # number of ReadSharedReq accesses(hits+misses) (Count)
system.l3.ReadSharedReq.accesses::cpu.data          714                       # number of ReadSharedReq accesses(hits+misses) (Count)
system.l3.ReadSharedReq.accesses::total          1103                       # number of ReadSharedReq accesses(hits+misses) (Count)
system.l3.ReadSharedReq.missRate::cpu.inst            1                       # miss rate for ReadSharedReq accesses (Ratio)
system.l3.ReadSharedReq.missRate::cpu.data            1                       # miss rate for ReadSharedReq accesses (Ratio)
system.l3.ReadSharedReq.missRate::total             1                       # miss rate for ReadSharedReq accesses (Ratio)
system.l3.ReadSharedReq.avgMissLatency::cpu.inst       171000                       # average ReadSharedReq miss latency ((Tick/Count))
system.l3.ReadSharedReq.avgMissLatency::cpu.data       171000                       # average ReadSharedReq miss latency ((Tick/Count))
system.l3.ReadSharedReq.avgMissLatency::total       171000                       # average ReadSharedReq miss latency ((Tick/Count))
system.l3.ReadSharedReq.mshrMisses::cpu.inst          389                       # number of ReadSharedReq MSHR misses (Count)
system.l3.ReadSharedReq.mshrMisses::cpu.data          714                       # number of ReadSharedReq MSHR misses (Count)
system.l3.ReadSharedReq.mshrMisses::total         1103                       # number of ReadSharedReq MSHR misses (Count)
system.l3.ReadSharedReq.mshrMissLatency::cpu.inst     58739000                       # number of ReadSharedReq MSHR miss ticks (Tick)
system.l3.ReadSharedReq.mshrMissLatency::cpu.data    107814000                       # number of ReadSharedReq MSHR miss ticks (Tick)
system.l3.ReadSharedReq.mshrMissLatency::total    166553000                       # number of ReadSharedReq MSHR miss ticks (Tick)
system.l3.ReadSharedReq.mshrMissRate::cpu.inst            1                       # mshr miss rate for ReadSharedReq accesses (Ratio)
system.l3.ReadSharedReq.mshrMissRate::cpu.data            1                       # mshr miss rate for ReadSharedReq accesses (Ratio)
system.l3.ReadSharedReq.mshrMissRate::total            1                       # mshr miss rate for ReadSharedReq accesses (Ratio)
system.l3.ReadSharedReq.avgMshrMissLatency::cpu.inst       151000                       # average ReadSharedReq mshr miss latency ((Tick/Count))
system.l3.ReadSharedReq.avgMshrMissLatency::cpu.data       151000                       # average ReadSharedReq mshr miss latency ((Tick/Count))
system.l3.ReadSharedReq.avgMshrMissLatency::total       151000                       # average ReadSharedReq mshr miss latency ((Tick/Count))
system.l3.power_state.pwrStateResidencyTicks::UNDEFINED   3483982000                       # Cumulative time (in ticks) in various power states (Tick)
system.l3.tags.tagsInUse                  1172.786323                       # Average ticks per tags in use ((Tick/Count))
system.l3.tags.totalRefs                         1517                       # Total number of references to valid blocks. (Count)
system.l3.tags.sampledRefs                       1517                       # Sample count of references to valid blocks. (Count)
system.l3.tags.avgRefs                              1                       # Average number of references to valid blocks. ((Count/Count))
system.l3.tags.warmupTick                      170000                       # The tick when the warmup percentage was hit. (Tick)
system.l3.tags.occupancies::cpu.inst       244.980104                       # Average occupied blocks per tick, per requestor ((Count/Tick))
system.l3.tags.occupancies::cpu.data       927.806219                       # Average occupied blocks per tick, per requestor ((Count/Tick))
system.l3.tags.avgOccs::cpu.inst             0.000935                       # Average percentage of cache occupancy ((Ratio/Tick))
system.l3.tags.avgOccs::cpu.data             0.003539                       # Average percentage of cache occupancy ((Ratio/Tick))
system.l3.tags.avgOccs::total                0.004474                       # Average percentage of cache occupancy ((Ratio/Tick))
system.l3.tags.occupanciesTaskId::1024           1517                       # Occupied blocks per task id (Count)
system.l3.tags.ageTaskId_1024::0                   32                       # Occupied blocks per task id, per block age (Count)
system.l3.tags.ageTaskId_1024::1                  141                       # Occupied blocks per task id, per block age (Count)
system.l3.tags.ageTaskId_1024::3                 1344                       # Occupied blocks per task id, per block age (Count)
system.l3.tags.ratioOccsTaskId::1024         0.005787                       # Ratio of occupied blocks and all blocks, per task id (Ratio)
system.l3.tags.tagAccesses                      25789                       # Number of tag accesses (Count)
system.l3.tags.dataAccesses                     25789                       # Number of data accesses (Count)
system.l3.tags.power_state.pwrStateResidencyTicks::UNDEFINED   3483982000                       # Cumulative time (in ticks) in various power states (Tick)
system.l3bus.transDist::ReadResp                 1103                       # Transaction distribution (Count)
system.l3bus.transDist::ReadExReq                 414                       # Transaction distribution (Count)
system.l3bus.transDist::ReadExResp                414                       # Transaction distribution (Count)
system.l3bus.transDist::ReadSharedReq            1103                       # Transaction distribution (Count)
system.l3bus.pktCount_system.l2.mem_side_port::system.l3.cpu_side_port         3034                       # Packet count per connected requestor and responder (Count)
system.l3bus.pktSize_system.l2.mem_side_port::system.l3.cpu_side_port        97088                       # Cumulative packet size per connected requestor and responder (Byte)
system.l3bus.snoops                                 0                       # Total snoops (Count)
system.l3bus.snoopTraffic                           0                       # Total snoop traffic (Byte)
system.l3bus.snoopFanout::samples                1517                       # Request fanout histogram (Count)
system.l3bus.snoopFanout::mean                      0                       # Request fanout histogram (Count)
system.l3bus.snoopFanout::stdev                     0                       # Request fanout histogram (Count)
system.l3bus.snoopFanout::underflows                0      0.00%      0.00% # Request fanout histogram (Count)
system.l3bus.snoopFanout::0                      1517    100.00%    100.00% # Request fanout histogram (Count)
system.l3bus.snoopFanout::1                         0      0.00%    100.00% # Request fanout histogram (Count)
system.l3bus.snoopFanout::overflows                 0      0.00%    100.00% # Request fanout histogram (Count)
system.l3bus.snoopFanout::min_value                 0                       # Request fanout histogram (Count)
system.l3bus.snoopFanout::max_value                 0                       # Request fanout histogram (Count)
system.l3bus.snoopFanout::total                  1517                       # Request fanout histogram (Count)
system.l3bus.power_state.pwrStateResidencyTicks::UNDEFINED   3483982000                       # Cumulative time (in ticks) in various power states (Tick)
system.l3bus.reqLayer0.occupancy              1517000                       # Layer occupancy (ticks) (Tick)
system.l3bus.reqLayer0.utilization                0.0                       # Layer utilization (Ratio)
system.l3bus.respLayer0.occupancy             3034000                       # Layer occupancy (ticks) (Tick)
system.l3bus.respLayer0.utilization               0.0                       # Layer utilization (Ratio)
system.l3bus.snoop_filter.totRequests            1517                       # Total number of requests made to the snoop filter. (Count)
system.l3bus.snoop_filter.hitSingleRequests            0                       # Number of requests hitting in the snoop filter with a single holder of the requested data. (Count)
system.l3bus.snoop_filter.hitMultiRequests            0                       # Number of requests hitting in the snoop filter with multiple (>1) holders of the requested data. (Count)
system.l3bus.snoop_filter.totSnoops                 0                       # Total number of snoops made to the snoop filter. (Count)
system.l3bus.snoop_filter.hitSingleSnoops            0                       # Number of snoops hitting in the snoop filter with a single holder of the requested data. (Count)
system.l3bus.snoop_filter.hitMultiSnoops            0                       # Number of snoops hitting in the snoop filter with multiple (>1) holders of the requested data. (Count)
system.mem_ctrl.bytesRead::cpu.inst             24896                       # Number of bytes read from this memory (Byte)
system.mem_ctrl.bytesRead::cpu.data             72192                       # Number of bytes read from this memory (Byte)
system.mem_ctrl.bytesRead::total                97088                       # Number of bytes read from this memory (Byte)
system.mem_ctrl.bytesInstRead::cpu.inst         24896                       # Number of instructions bytes read from this memory (Byte)
system.mem_ctrl.bytesInstRead::total            24896                       # Number of instructions bytes read from this memory (Byte)
system.mem_ctrl.numReads::cpu.inst                389                       # Number of read requests responded to by this memory (Count)
system.mem_ctrl.numReads::cpu.data               1128                       # Number of read requests responded to by this memory (Count)
system.mem_ctrl.numReads::total                  1517                       # Number of read requests responded to by this memory (Count)
system.mem_ctrl.bwRead::cpu.inst              7145846                       # Total read bandwidth from this memory ((Byte/Second))
system.mem_ctrl.bwRead::cpu.data             20721117                       # Total read bandwidth from this memory ((Byte/Second))
system.mem_ctrl.bwRead::total                27866964                       # Total read bandwidth from this memory ((Byte/Second))
system.mem_ctrl.bwInstRead::cpu.inst          7145846                       # Instruction read bandwidth from this memory ((Byte/Second))
system.mem_ctrl.bwInstRead::total             7145846                       # Instruction read bandwidth from this memory ((Byte/Second))
system.mem_ctrl.bwTotal::cpu.inst             7145846                       # Total bandwidth to/from this memory ((Byte/Second))
system.mem_ctrl.bwTotal::cpu.data            20721117                       # Total bandwidth to/from this memory ((Byte/Second))
system.mem_ctrl.bwTotal::total               27866964                       # Total bandwidth to/from this memory ((Byte/Second))
system.mem_ctrl.power_state.pwrStateResidencyTicks::UNDEFINED   3483982000                       # Cumulative time (in ticks) in various power states (Tick)
system.membus.transDist::ReadResp                1103                       # Transaction distribution (Count)
system.membus.transDist::ReadExReq                414                       # Transaction distribution (Count)
system.membus.transDist::ReadExResp               414                       # Transaction distribution (Count)
system.membus.transDist::ReadSharedReq           1103                       # Transaction distribution (Count)
system.membus.pktCount_system.l3.mem_side_port::system.mem_ctrl.port         3034                       # Packet count per connected requestor and responder (Count)
system.membus.pktCount::total                    3034                       # Packet count per connected requestor and responder (Count)
system.membus.pktSize_system.l3.mem_side_port::system.mem_ctrl.port        97088                       # Cumulative packet size per connected requestor and responder (Byte)
system.membus.pktSize::total                    97088                       # Cumulative packet size per connected requestor and responder (Byte)
system.membus.snoops                                0                       # Total snoops (Count)
system.membus.snoopTraffic                          0                       # Total snoop traffic (Byte)
system.membus.snoopFanout::samples               1517                       # Request fanout histogram (Count)
system.membus.snoopFanout::mean                     0                       # Request fanout histogram (Count)
system.membus.snoopFanout::stdev                    0                       # Request fanout histogram (Count)
system.membus.snoopFanout::underflows               0      0.00%      0.00% # Request fanout histogram (Count)
system.membus.snoopFanout::0                     1517    100.00%    100.00% # Request fanout histogram (Count)
system.membus.snoopFanout::1                        0      0.00%    100.00% # Request fanout histogram (Count)
system.membus.snoopFanout::overflows                0      0.00%    100.00% # Request fanout histogram (Count)
system.membus.snoopFanout::min_value                0                       # Request fanout histogram (Count)
system.membus.snoopFanout::max_value                0                       # Request fanout histogram (Count)
system.membus.snoopFanout::total                 1517                       # Request fanout histogram (Count)
system.membus.power_state.pwrStateResidencyTicks::UNDEFINED   3483982000                       # Cumulative time (in ticks) in various power states (Tick)
system.membus.reqLayer0.occupancy             1517000                       # Layer occupancy (ticks) (Tick)
system.membus.reqLayer0.utilization               0.0                       # Layer utilization (Ratio)
system.membus.respLayer0.occupancy            7585000                       # Layer occupancy (ticks) (Tick)
system.membus.respLayer0.utilization              0.0                       # Layer utilization (Ratio)
system.membus.snoop_filter.totRequests           1517                       # Total number of requests made to the snoop filter. (Count)
system.membus.snoop_filter.hitSingleRequests            0                       # Number of requests hitting in the snoop filter with a single holder of the requested data. (Count)
system.membus.snoop_filter.hitMultiRequests            0                       # Number of requests hitting in the snoop filter with multiple (>1) holders of the requested data. (Count)
system.membus.snoop_filter.totSnoops                0                       # Total number of snoops made to the snoop filter. (Count)
system.membus.snoop_filter.hitSingleSnoops            0                       # Number of snoops hitting in the snoop filter with a single holder of the requested data. (Count)
system.membus.snoop_filter.hitMultiSnoops            0                       # Number of snoops hitting in the snoop filter with multiple (>1) holders of the requested data. (Count)
system.workload.inst.arm                            0                       # number of arm instructions executed (Count)
system.workload.inst.quiesce                        0                       # number of quiesce instructions executed (Count)

---------- End Simulation Statistics   ----------
