
---------- Begin Simulation Statistics ----------
simSeconds                                   0.617321                       # Number of seconds simulated (Second)
simTicks                                 617320621000                       # Number of ticks simulated (Tick)
finalTick                                617320621000                       # Number of ticks from beginning of simulation (restored from checkpoints and never reset) (Tick)
simFreq                                  1000000000000                       # The number of ticks per simulated second ((Tick/Second))
hostSeconds                                     19.91                       # Real time elapsed on the host (Second)
hostTickRate                              31007440482                       # The number of ticks simulated per host second (ticks/s) ((Tick/Second))
hostMemory                                     759884                       # Number of bytes of host memory used (Byte)
simInsts                                     16898020                       # Number of instructions simulated (Count)
simOps                                       16898068                       # Number of ops (including micro ops) simulated (Count)
hostInstRate                                   848769                       # Simulator instruction rate (inst/s) ((Count/Second))
hostOpRate                                     848771                       # Simulator op (including micro ops) rate (op/s) ((Count/Second))
system.clk_domain.clock                          1000                       # Clock period in ticks (Tick)
system.clk_domain.voltage_domain.voltage            1                       # Voltage in Volts (Volt)
system.cpu.numCycles                        617320621                       # Number of cpu cycles simulated (Cycle)
system.cpu.cpi                              36.514380                       # CPI: cycles per instruction (core level) ((Cycle/Count))
system.cpu.ipc                               0.027386                       # IPC: instructions per cycle (core level) ((Count/Cycle))
system.cpu.numWorkItemsStarted                      0                       # Number of work items this cpu started (Count)
system.cpu.numWorkItemsCompleted                    0                       # Number of work items this cpu completed (Count)
system.cpu.commitStats0.numInsts             16906233                       # Number of instructions committed (thread level) (Count)
system.cpu.commitStats0.numOps               16906281                       # Number of ops (including micro ops) committed (thread level) (Count)
system.cpu.commitStats0.numInstsNotNOP              0                       # Number of instructions committed excluding NOPs or prefetches (Count)
system.cpu.commitStats0.numOpsNotNOP                0                       # Number of Ops (including micro ops) Simulated (Count)
system.cpu.commitStats0.cpi                 36.514380                       # CPI: cycles per instruction (thread level) ((Cycle/Count))
system.cpu.commitStats0.ipc                  0.027386                       # IPC: instructions per cycle (thread level) ((Count/Cycle))
system.cpu.commitStats0.numMemRefs                  0                       # Number of memory references committed (Count)
system.cpu.commitStats0.numFpInsts                 12                       # Number of float instructions (Count)
system.cpu.commitStats0.numIntInsts          16903293                       # Number of integer instructions (Count)
system.cpu.commitStats0.numLoadInsts          2114651                       # Number of load instructions (Count)
system.cpu.commitStats0.numStoreInsts         2110016                       # Number of store instructions (Count)
system.cpu.commitStats0.numVecInsts                 0                       # Number of vector instructions (Count)
system.cpu.commitStats0.committedInstType::No_OpClass          115      0.00%      0.00% # Class of committed instruction. (Count)
system.cpu.commitStats0.committedInstType::IntAlu     12681473     75.01%     75.01% # Class of committed instruction. (Count)
system.cpu.commitStats0.committedInstType::IntMult           20      0.00%     75.01% # Class of committed instruction. (Count)
system.cpu.commitStats0.committedInstType::IntDiv            6      0.00%     75.01% # Class of committed instruction. (Count)
system.cpu.commitStats0.committedInstType::FloatAdd            0      0.00%     75.01% # Class of committed instruction. (Count)
system.cpu.commitStats0.committedInstType::FloatCmp            0      0.00%     75.01% # Class of committed instruction. (Count)
system.cpu.commitStats0.committedInstType::FloatCvt            0      0.00%     75.01% # Class of committed instruction. (Count)
system.cpu.commitStats0.committedInstType::FloatMult            0      0.00%     75.01% # Class of committed instruction. (Count)
system.cpu.commitStats0.committedInstType::FloatMultAcc            0      0.00%     75.01% # Class of committed instruction. (Count)
system.cpu.commitStats0.committedInstType::FloatDiv            0      0.00%     75.01% # Class of committed instruction. (Count)
system.cpu.commitStats0.committedInstType::FloatMisc            0      0.00%     75.01% # Class of committed instruction. (Count)
system.cpu.commitStats0.committedInstType::FloatSqrt            0      0.00%     75.01% # Class of committed instruction. (Count)
system.cpu.commitStats0.committedInstType::SimdAdd            0      0.00%     75.01% # Class of committed instruction. (Count)
system.cpu.commitStats0.committedInstType::SimdAddAcc            0      0.00%     75.01% # Class of committed instruction. (Count)
system.cpu.commitStats0.committedInstType::SimdAlu            0      0.00%     75.01% # Class of committed instruction. (Count)
system.cpu.commitStats0.committedInstType::SimdCmp            0      0.00%     75.01% # Class of committed instruction. (Count)
system.cpu.commitStats0.committedInstType::SimdCvt            0      0.00%     75.01% # Class of committed instruction. (Count)
system.cpu.commitStats0.committedInstType::SimdMisc            0      0.00%     75.01% # Class of committed instruction. (Count)
system.cpu.commitStats0.committedInstType::SimdMult            0      0.00%     75.01% # Class of committed instruction. (Count)
system.cpu.commitStats0.committedInstType::SimdMultAcc            0      0.00%     75.01% # Class of committed instruction. (Count)
system.cpu.commitStats0.committedInstType::SimdMatMultAcc            0      0.00%     75.01% # Class of committed instruction. (Count)
system.cpu.commitStats0.committedInstType::SimdShift            0      0.00%     75.01% # Class of committed instruction. (Count)
system.cpu.commitStats0.committedInstType::SimdShiftAcc            0      0.00%     75.01% # Class of committed instruction. (Count)
system.cpu.commitStats0.committedInstType::SimdDiv            0      0.00%     75.01% # Class of committed instruction. (Count)
system.cpu.commitStats0.committedInstType::SimdSqrt            0      0.00%     75.01% # Class of committed instruction. (Count)
system.cpu.commitStats0.committedInstType::SimdFloatAdd            0      0.00%     75.01% # Class of committed instruction. (Count)
system.cpu.commitStats0.committedInstType::SimdFloatAlu            0      0.00%     75.01% # Class of committed instruction. (Count)
system.cpu.commitStats0.committedInstType::SimdFloatCmp            0      0.00%     75.01% # Class of committed instruction. (Count)
system.cpu.commitStats0.committedInstType::SimdFloatCvt            0      0.00%     75.01% # Class of committed instruction. (Count)
system.cpu.commitStats0.committedInstType::SimdFloatDiv            0      0.00%     75.01% # Class of committed instruction. (Count)
system.cpu.commitStats0.committedInstType::SimdFloatMisc            0      0.00%     75.01% # Class of committed instruction. (Count)
system.cpu.commitStats0.committedInstType::SimdFloatMult            0      0.00%     75.01% # Class of committed instruction. (Count)
system.cpu.commitStats0.committedInstType::SimdFloatMultAcc            0      0.00%     75.01% # Class of committed instruction. (Count)
system.cpu.commitStats0.committedInstType::SimdFloatMatMultAcc            0      0.00%     75.01% # Class of committed instruction. (Count)
system.cpu.commitStats0.committedInstType::SimdFloatSqrt            0      0.00%     75.01% # Class of committed instruction. (Count)
system.cpu.commitStats0.committedInstType::SimdReduceAdd            0      0.00%     75.01% # Class of committed instruction. (Count)
system.cpu.commitStats0.committedInstType::SimdReduceAlu            0      0.00%     75.01% # Class of committed instruction. (Count)
system.cpu.commitStats0.committedInstType::SimdReduceCmp            0      0.00%     75.01% # Class of committed instruction. (Count)
system.cpu.commitStats0.committedInstType::SimdFloatReduceAdd            0      0.00%     75.01% # Class of committed instruction. (Count)
system.cpu.commitStats0.committedInstType::SimdFloatReduceCmp            0      0.00%     75.01% # Class of committed instruction. (Count)
system.cpu.commitStats0.committedInstType::SimdAes            0      0.00%     75.01% # Class of committed instruction. (Count)
system.cpu.commitStats0.committedInstType::SimdAesMix            0      0.00%     75.01% # Class of committed instruction. (Count)
system.cpu.commitStats0.committedInstType::SimdSha1Hash            0      0.00%     75.01% # Class of committed instruction. (Count)
system.cpu.commitStats0.committedInstType::SimdSha1Hash2            0      0.00%     75.01% # Class of committed instruction. (Count)
system.cpu.commitStats0.committedInstType::SimdSha256Hash            0      0.00%     75.01% # Class of committed instruction. (Count)
system.cpu.commitStats0.committedInstType::SimdSha256Hash2            0      0.00%     75.01% # Class of committed instruction. (Count)
system.cpu.commitStats0.committedInstType::SimdShaSigma2            0      0.00%     75.01% # Class of committed instruction. (Count)
system.cpu.commitStats0.committedInstType::SimdShaSigma3            0      0.00%     75.01% # Class of committed instruction. (Count)
system.cpu.commitStats0.committedInstType::SimdPredAlu            0      0.00%     75.01% # Class of committed instruction. (Count)
system.cpu.commitStats0.committedInstType::Matrix            0      0.00%     75.01% # Class of committed instruction. (Count)
system.cpu.commitStats0.committedInstType::MatrixMov            0      0.00%     75.01% # Class of committed instruction. (Count)
system.cpu.commitStats0.committedInstType::MatrixOP            0      0.00%     75.01% # Class of committed instruction. (Count)
system.cpu.commitStats0.committedInstType::MemRead      2114669     12.51%     87.52% # Class of committed instruction. (Count)
system.cpu.commitStats0.committedInstType::MemWrite      2109986     12.48%    100.00% # Class of committed instruction. (Count)
system.cpu.commitStats0.committedInstType::FloatMemRead            0      0.00%    100.00% # Class of committed instruction. (Count)
system.cpu.commitStats0.committedInstType::FloatMemWrite           12      0.00%    100.00% # Class of committed instruction. (Count)
system.cpu.commitStats0.committedInstType::IprAccess            0      0.00%    100.00% # Class of committed instruction. (Count)
system.cpu.commitStats0.committedInstType::InstPrefetch            0      0.00%    100.00% # Class of committed instruction. (Count)
system.cpu.commitStats0.committedInstType::SimdUnitStrideLoad            0      0.00%    100.00% # Class of committed instruction. (Count)
system.cpu.commitStats0.committedInstType::SimdUnitStrideStore            0      0.00%    100.00% # Class of committed instruction. (Count)
system.cpu.commitStats0.committedInstType::SimdUnitStrideMaskLoad            0      0.00%    100.00% # Class of committed instruction. (Count)
system.cpu.commitStats0.committedInstType::SimdUnitStrideMaskStore            0      0.00%    100.00% # Class of committed instruction. (Count)
system.cpu.commitStats0.committedInstType::SimdStridedLoad            0      0.00%    100.00% # Class of committed instruction. (Count)
system.cpu.commitStats0.committedInstType::SimdStridedStore            0      0.00%    100.00% # Class of committed instruction. (Count)
system.cpu.commitStats0.committedInstType::SimdIndexedLoad            0      0.00%    100.00% # Class of committed instruction. (Count)
system.cpu.commitStats0.committedInstType::SimdIndexedStore            0      0.00%    100.00% # Class of committed instruction. (Count)
system.cpu.commitStats0.committedInstType::SimdWholeRegisterLoad            0      0.00%    100.00% # Class of committed instruction. (Count)
system.cpu.commitStats0.committedInstType::SimdWholeRegisterStore            0      0.00%    100.00% # Class of committed instruction. (Count)
system.cpu.commitStats0.committedInstType::SimdUnitStrideFaultOnlyFirstLoad            0      0.00%    100.00% # Class of committed instruction. (Count)
system.cpu.commitStats0.committedInstType::SimdUnitStrideSegmentedLoad            0      0.00%    100.00% # Class of committed instruction. (Count)
system.cpu.commitStats0.committedInstType::SimdUnitStrideSegmentedStore            0      0.00%    100.00% # Class of committed instruction. (Count)
system.cpu.commitStats0.committedInstType::SimdExt            0      0.00%    100.00% # Class of committed instruction. (Count)
system.cpu.commitStats0.committedInstType::SimdFloatExt            0      0.00%    100.00% # Class of committed instruction. (Count)
system.cpu.commitStats0.committedInstType::SimdConfig            0      0.00%    100.00% # Class of committed instruction. (Count)
system.cpu.commitStats0.committedInstType::total     16906281                       # Class of committed instruction. (Count)
system.cpu.commitStats0.committedControl::IsControl      4225077                       # Class of control type instructions committed (Count)
system.cpu.commitStats0.committedControl::IsDirectControl      4221139                       # Class of control type instructions committed (Count)
system.cpu.commitStats0.committedControl::IsIndirectControl         3938                       # Class of control type instructions committed (Count)
system.cpu.commitStats0.committedControl::IsCondControl      4216230                       # Class of control type instructions committed (Count)
system.cpu.commitStats0.committedControl::IsUncondControl         8847                       # Class of control type instructions committed (Count)
system.cpu.commitStats0.committedControl::IsCall         2065                       # Class of control type instructions committed (Count)
system.cpu.commitStats0.committedControl::IsReturn         2060                       # Class of control type instructions committed (Count)
system.cpu.dcache.demandHits::cpu.data          21181                       # number of demand (read+write) hits (Count)
system.cpu.dcache.demandHits::total             21181                       # number of demand (read+write) hits (Count)
system.cpu.dcache.overallHits::cpu.data         21181                       # number of overall hits (Count)
system.cpu.dcache.overallHits::total            21181                       # number of overall hits (Count)
system.cpu.dcache.demandMisses::cpu.data      4195251                       # number of demand (read+write) misses (Count)
system.cpu.dcache.demandMisses::total         4195251                       # number of demand (read+write) misses (Count)
system.cpu.dcache.overallMisses::cpu.data      4195251                       # number of overall misses (Count)
system.cpu.dcache.overallMisses::total        4195251                       # number of overall misses (Count)
system.cpu.dcache.demandMissLatency::cpu.data 532649718000                       # number of demand (read+write) miss ticks (Tick)
system.cpu.dcache.demandMissLatency::total 532649718000                       # number of demand (read+write) miss ticks (Tick)
system.cpu.dcache.overallMissLatency::cpu.data 532649718000                       # number of overall miss ticks (Tick)
system.cpu.dcache.overallMissLatency::total 532649718000                       # number of overall miss ticks (Tick)
system.cpu.dcache.demandAccesses::cpu.data      4216432                       # number of demand (read+write) accesses (Count)
system.cpu.dcache.demandAccesses::total       4216432                       # number of demand (read+write) accesses (Count)
system.cpu.dcache.overallAccesses::cpu.data      4216432                       # number of overall (read+write) accesses (Count)
system.cpu.dcache.overallAccesses::total      4216432                       # number of overall (read+write) accesses (Count)
system.cpu.dcache.demandMissRate::cpu.data     0.994977                       # miss rate for demand accesses (Ratio)
system.cpu.dcache.demandMissRate::total      0.994977                       # miss rate for demand accesses (Ratio)
system.cpu.dcache.overallMissRate::cpu.data     0.994977                       # miss rate for overall accesses (Ratio)
system.cpu.dcache.overallMissRate::total     0.994977                       # miss rate for overall accesses (Ratio)
system.cpu.dcache.demandAvgMissLatency::cpu.data 126964.922480                       # average overall miss latency in ticks ((Tick/Count))
system.cpu.dcache.demandAvgMissLatency::total 126964.922480                       # average overall miss latency in ticks ((Tick/Count))
system.cpu.dcache.overallAvgMissLatency::cpu.data 126964.922480                       # average overall miss latency ((Tick/Count))
system.cpu.dcache.overallAvgMissLatency::total 126964.922480                       # average overall miss latency ((Tick/Count))
system.cpu.dcache.blockedCycles::no_mshrs            0                       # number of cycles access was blocked (Cycle)
system.cpu.dcache.blockedCycles::no_targets            0                       # number of cycles access was blocked (Cycle)
system.cpu.dcache.blockedCauses::no_mshrs            0                       # number of times access was blocked (Count)
system.cpu.dcache.blockedCauses::no_targets            0                       # number of times access was blocked (Count)
system.cpu.dcache.avgBlocked::no_mshrs            nan                       # average number of cycles each access was blocked ((Cycle/Count))
system.cpu.dcache.avgBlocked::no_targets          nan                       # average number of cycles each access was blocked ((Cycle/Count))
system.cpu.dcache.writebacks::writebacks      2097325                       # number of writebacks (Count)
system.cpu.dcache.writebacks::total           2097325                       # number of writebacks (Count)
system.cpu.dcache.demandMshrMisses::cpu.data      4195251                       # number of demand (read+write) MSHR misses (Count)
system.cpu.dcache.demandMshrMisses::total      4195251                       # number of demand (read+write) MSHR misses (Count)
system.cpu.dcache.overallMshrMisses::cpu.data      4195251                       # number of overall MSHR misses (Count)
system.cpu.dcache.overallMshrMisses::total      4195251                       # number of overall MSHR misses (Count)
system.cpu.dcache.demandMshrMissLatency::cpu.data 515868714000                       # number of demand (read+write) MSHR miss ticks (Tick)
system.cpu.dcache.demandMshrMissLatency::total 515868714000                       # number of demand (read+write) MSHR miss ticks (Tick)
system.cpu.dcache.overallMshrMissLatency::cpu.data 515868714000                       # number of overall MSHR miss ticks (Tick)
system.cpu.dcache.overallMshrMissLatency::total 515868714000                       # number of overall MSHR miss ticks (Tick)
system.cpu.dcache.demandMshrMissRate::cpu.data     0.994977                       # mshr miss ratio for demand accesses (Ratio)
system.cpu.dcache.demandMshrMissRate::total     0.994977                       # mshr miss ratio for demand accesses (Ratio)
system.cpu.dcache.overallMshrMissRate::cpu.data     0.994977                       # mshr miss ratio for overall accesses (Ratio)
system.cpu.dcache.overallMshrMissRate::total     0.994977                       # mshr miss ratio for overall accesses (Ratio)
system.cpu.dcache.demandAvgMshrMissLatency::cpu.data 122964.922480                       # average overall mshr miss latency ((Tick/Count))
system.cpu.dcache.demandAvgMshrMissLatency::total 122964.922480                       # average overall mshr miss latency ((Tick/Count))
system.cpu.dcache.overallAvgMshrMissLatency::cpu.data 122964.922480                       # average overall mshr miss latency ((Tick/Count))
system.cpu.dcache.overallAvgMshrMissLatency::total 122964.922480                       # average overall mshr miss latency ((Tick/Count))
system.cpu.dcache.replacements                4194742                       # number of replacements (Count)
system.cpu.dcache.LoadLockedReq.hits::cpu.data           10                       # number of LoadLockedReq hits (Count)
system.cpu.dcache.LoadLockedReq.hits::total           10                       # number of LoadLockedReq hits (Count)
system.cpu.dcache.LoadLockedReq.misses::cpu.data            1                       # number of LoadLockedReq misses (Count)
system.cpu.dcache.LoadLockedReq.misses::total            1                       # number of LoadLockedReq misses (Count)
system.cpu.dcache.LoadLockedReq.missLatency::cpu.data       119000                       # number of LoadLockedReq miss ticks (Tick)
system.cpu.dcache.LoadLockedReq.missLatency::total       119000                       # number of LoadLockedReq miss ticks (Tick)
system.cpu.dcache.LoadLockedReq.accesses::cpu.data           11                       # number of LoadLockedReq accesses(hits+misses) (Count)
system.cpu.dcache.LoadLockedReq.accesses::total           11                       # number of LoadLockedReq accesses(hits+misses) (Count)
system.cpu.dcache.LoadLockedReq.missRate::cpu.data     0.090909                       # miss rate for LoadLockedReq accesses (Ratio)
system.cpu.dcache.LoadLockedReq.missRate::total     0.090909                       # miss rate for LoadLockedReq accesses (Ratio)
system.cpu.dcache.LoadLockedReq.avgMissLatency::cpu.data       119000                       # average LoadLockedReq miss latency ((Tick/Count))
system.cpu.dcache.LoadLockedReq.avgMissLatency::total       119000                       # average LoadLockedReq miss latency ((Tick/Count))
system.cpu.dcache.LoadLockedReq.mshrMisses::cpu.data            1                       # number of LoadLockedReq MSHR misses (Count)
system.cpu.dcache.LoadLockedReq.mshrMisses::total            1                       # number of LoadLockedReq MSHR misses (Count)
system.cpu.dcache.LoadLockedReq.mshrMissLatency::cpu.data       115000                       # number of LoadLockedReq MSHR miss ticks (Tick)
system.cpu.dcache.LoadLockedReq.mshrMissLatency::total       115000                       # number of LoadLockedReq MSHR miss ticks (Tick)
system.cpu.dcache.LoadLockedReq.mshrMissRate::cpu.data     0.090909                       # mshr miss rate for LoadLockedReq accesses (Ratio)
system.cpu.dcache.LoadLockedReq.mshrMissRate::total     0.090909                       # mshr miss rate for LoadLockedReq accesses (Ratio)
system.cpu.dcache.LoadLockedReq.avgMshrMissLatency::cpu.data       115000                       # average LoadLockedReq mshr miss latency ((Tick/Count))
system.cpu.dcache.LoadLockedReq.avgMshrMissLatency::total       115000                       # average LoadLockedReq mshr miss latency ((Tick/Count))
system.cpu.dcache.ReadReq.hits::cpu.data        16713                       # number of ReadReq hits (Count)
system.cpu.dcache.ReadReq.hits::total           16713                       # number of ReadReq hits (Count)
system.cpu.dcache.ReadReq.misses::cpu.data      2097927                       # number of ReadReq misses (Count)
system.cpu.dcache.ReadReq.misses::total       2097927                       # number of ReadReq misses (Count)
system.cpu.dcache.ReadReq.missLatency::cpu.data 265828184000                       # number of ReadReq miss ticks (Tick)
system.cpu.dcache.ReadReq.missLatency::total 265828184000                       # number of ReadReq miss ticks (Tick)
system.cpu.dcache.ReadReq.accesses::cpu.data      2114640                       # number of ReadReq accesses(hits+misses) (Count)
system.cpu.dcache.ReadReq.accesses::total      2114640                       # number of ReadReq accesses(hits+misses) (Count)
system.cpu.dcache.ReadReq.missRate::cpu.data     0.992097                       # miss rate for ReadReq accesses (Ratio)
system.cpu.dcache.ReadReq.missRate::total     0.992097                       # miss rate for ReadReq accesses (Ratio)
system.cpu.dcache.ReadReq.avgMissLatency::cpu.data 126709.930326                       # average ReadReq miss latency ((Tick/Count))
system.cpu.dcache.ReadReq.avgMissLatency::total 126709.930326                       # average ReadReq miss latency ((Tick/Count))
system.cpu.dcache.ReadReq.mshrMisses::cpu.data      2097927                       # number of ReadReq MSHR misses (Count)
system.cpu.dcache.ReadReq.mshrMisses::total      2097927                       # number of ReadReq MSHR misses (Count)
system.cpu.dcache.ReadReq.mshrMissLatency::cpu.data 257436476000                       # number of ReadReq MSHR miss ticks (Tick)
system.cpu.dcache.ReadReq.mshrMissLatency::total 257436476000                       # number of ReadReq MSHR miss ticks (Tick)
system.cpu.dcache.ReadReq.mshrMissRate::cpu.data     0.992097                       # mshr miss rate for ReadReq accesses (Ratio)
system.cpu.dcache.ReadReq.mshrMissRate::total     0.992097                       # mshr miss rate for ReadReq accesses (Ratio)
system.cpu.dcache.ReadReq.avgMshrMissLatency::cpu.data 122709.930326                       # average ReadReq mshr miss latency ((Tick/Count))
system.cpu.dcache.ReadReq.avgMshrMissLatency::total 122709.930326                       # average ReadReq mshr miss latency ((Tick/Count))
system.cpu.dcache.StoreCondReq.hits::cpu.data           11                       # number of StoreCondReq hits (Count)
system.cpu.dcache.StoreCondReq.hits::total           11                       # number of StoreCondReq hits (Count)
system.cpu.dcache.StoreCondReq.accesses::cpu.data           11                       # number of StoreCondReq accesses(hits+misses) (Count)
system.cpu.dcache.StoreCondReq.accesses::total           11                       # number of StoreCondReq accesses(hits+misses) (Count)
system.cpu.dcache.SwapReq.hits::cpu.data           16                       # number of SwapReq hits (Count)
system.cpu.dcache.SwapReq.hits::total              16                       # number of SwapReq hits (Count)
system.cpu.dcache.SwapReq.misses::cpu.data            2                       # number of SwapReq misses (Count)
system.cpu.dcache.SwapReq.misses::total             2                       # number of SwapReq misses (Count)
system.cpu.dcache.SwapReq.missLatency::cpu.data       297000                       # number of SwapReq miss ticks (Tick)
system.cpu.dcache.SwapReq.missLatency::total       297000                       # number of SwapReq miss ticks (Tick)
system.cpu.dcache.SwapReq.accesses::cpu.data           18                       # number of SwapReq accesses(hits+misses) (Count)
system.cpu.dcache.SwapReq.accesses::total           18                       # number of SwapReq accesses(hits+misses) (Count)
system.cpu.dcache.SwapReq.missRate::cpu.data     0.111111                       # miss rate for SwapReq accesses (Ratio)
system.cpu.dcache.SwapReq.missRate::total     0.111111                       # miss rate for SwapReq accesses (Ratio)
system.cpu.dcache.SwapReq.avgMissLatency::cpu.data       148500                       # average SwapReq miss latency ((Tick/Count))
system.cpu.dcache.SwapReq.avgMissLatency::total       148500                       # average SwapReq miss latency ((Tick/Count))
system.cpu.dcache.SwapReq.mshrMisses::cpu.data            2                       # number of SwapReq MSHR misses (Count)
system.cpu.dcache.SwapReq.mshrMisses::total            2                       # number of SwapReq MSHR misses (Count)
system.cpu.dcache.SwapReq.mshrMissLatency::cpu.data       289000                       # number of SwapReq MSHR miss ticks (Tick)
system.cpu.dcache.SwapReq.mshrMissLatency::total       289000                       # number of SwapReq MSHR miss ticks (Tick)
system.cpu.dcache.SwapReq.mshrMissRate::cpu.data     0.111111                       # mshr miss rate for SwapReq accesses (Ratio)
system.cpu.dcache.SwapReq.mshrMissRate::total     0.111111                       # mshr miss rate for SwapReq accesses (Ratio)
system.cpu.dcache.SwapReq.avgMshrMissLatency::cpu.data       144500                       # average SwapReq mshr miss latency ((Tick/Count))
system.cpu.dcache.SwapReq.avgMshrMissLatency::total       144500                       # average SwapReq mshr miss latency ((Tick/Count))
system.cpu.dcache.WriteReq.hits::cpu.data         4468                       # number of WriteReq hits (Count)
system.cpu.dcache.WriteReq.hits::total           4468                       # number of WriteReq hits (Count)
system.cpu.dcache.WriteReq.misses::cpu.data      2097324                       # number of WriteReq misses (Count)
system.cpu.dcache.WriteReq.misses::total      2097324                       # number of WriteReq misses (Count)
system.cpu.dcache.WriteReq.missLatency::cpu.data 266821534000                       # number of WriteReq miss ticks (Tick)
system.cpu.dcache.WriteReq.missLatency::total 266821534000                       # number of WriteReq miss ticks (Tick)
system.cpu.dcache.WriteReq.accesses::cpu.data      2101792                       # number of WriteReq accesses(hits+misses) (Count)
system.cpu.dcache.WriteReq.accesses::total      2101792                       # number of WriteReq accesses(hits+misses) (Count)
system.cpu.dcache.WriteReq.missRate::cpu.data     0.997874                       # miss rate for WriteReq accesses (Ratio)
system.cpu.dcache.WriteReq.missRate::total     0.997874                       # miss rate for WriteReq accesses (Ratio)
system.cpu.dcache.WriteReq.avgMissLatency::cpu.data 127219.987947                       # average WriteReq miss latency ((Tick/Count))
system.cpu.dcache.WriteReq.avgMissLatency::total 127219.987947                       # average WriteReq miss latency ((Tick/Count))
system.cpu.dcache.WriteReq.mshrMisses::cpu.data      2097324                       # number of WriteReq MSHR misses (Count)
system.cpu.dcache.WriteReq.mshrMisses::total      2097324                       # number of WriteReq MSHR misses (Count)
system.cpu.dcache.WriteReq.mshrMissLatency::cpu.data 258432238000                       # number of WriteReq MSHR miss ticks (Tick)
system.cpu.dcache.WriteReq.mshrMissLatency::total 258432238000                       # number of WriteReq MSHR miss ticks (Tick)
system.cpu.dcache.WriteReq.mshrMissRate::cpu.data     0.997874                       # mshr miss rate for WriteReq accesses (Ratio)
system.cpu.dcache.WriteReq.mshrMissRate::total     0.997874                       # mshr miss rate for WriteReq accesses (Ratio)
system.cpu.dcache.WriteReq.avgMshrMissLatency::cpu.data 123219.987947                       # average WriteReq mshr miss latency ((Tick/Count))
system.cpu.dcache.WriteReq.avgMshrMissLatency::total 123219.987947                       # average WriteReq mshr miss latency ((Tick/Count))
system.cpu.dcache.power_state.pwrStateResidencyTicks::UNDEFINED 617320621000                       # Cumulative time (in ticks) in various power states (Tick)
system.cpu.dcache.tags.tagsInUse           511.804663                       # Average ticks per tags in use ((Tick/Count))
system.cpu.dcache.tags.totalRefs              4216472                       # Total number of references to valid blocks. (Count)
system.cpu.dcache.tags.sampledRefs            4195254                       # Sample count of references to valid blocks. (Count)
system.cpu.dcache.tags.avgRefs               1.005058                       # Average number of references to valid blocks. ((Count/Count))
system.cpu.dcache.tags.warmupTick              413000                       # The tick when the warmup percentage was hit. (Tick)
system.cpu.dcache.tags.occupancies::cpu.data   511.804663                       # Average occupied blocks per tick, per requestor ((Count/Tick))
system.cpu.dcache.tags.avgOccs::cpu.data     0.999618                       # Average percentage of cache occupancy ((Ratio/Tick))
system.cpu.dcache.tags.avgOccs::total        0.999618                       # Average percentage of cache occupancy ((Ratio/Tick))
system.cpu.dcache.tags.occupanciesTaskId::1024          512                       # Occupied blocks per task id (Count)
system.cpu.dcache.tags.ageTaskId_1024::0           13                       # Occupied blocks per task id, per block age (Count)
system.cpu.dcache.tags.ageTaskId_1024::1          387                       # Occupied blocks per task id, per block age (Count)
system.cpu.dcache.tags.ageTaskId_1024::2          112                       # Occupied blocks per task id, per block age (Count)
system.cpu.dcache.tags.ratioOccsTaskId::1024            1                       # Ratio of occupied blocks and all blocks, per task id (Ratio)
system.cpu.dcache.tags.tagAccesses           12628198                       # Number of tag accesses (Count)
system.cpu.dcache.tags.dataAccesses          12628198                       # Number of data accesses (Count)
system.cpu.dcache.tags.power_state.pwrStateResidencyTicks::UNDEFINED 617320621000                       # Cumulative time (in ticks) in various power states (Tick)
system.cpu.exec_context.thread_0.numMatAluAccesses            0                       # Number of matrix alu accesses (Count)
system.cpu.exec_context.thread_0.numCallsReturns         4125                       # Number of times a function call or return occured (Count)
system.cpu.exec_context.thread_0.numMatInsts            0                       # Number of matrix instructions (Count)
system.cpu.exec_context.thread_0.numIdleCycles     0.001000                       # Number of idle cycles (Cycle)
system.cpu.exec_context.thread_0.numBusyCycles 617320620.999000                       # Number of busy cycles (Cycle)
system.cpu.exec_context.thread_0.notIdleFraction     1.000000                       # Percentage of non-idle cycles (Ratio)
system.cpu.exec_context.thread_0.idleFraction     0.000000                       # Percentage of idle cycles (Ratio)
system.cpu.executeStats0.numInsts                   0                       # Number of executed instructions (Count)
system.cpu.executeStats0.numNop                     0                       # Number of nop insts executed (Count)
system.cpu.executeStats0.numBranches                0                       # Number of branches executed (Count)
system.cpu.executeStats0.numLoadInsts               0                       # Number of load instructions executed (Count)
system.cpu.executeStats0.numStoreInsts        4224667                       # Number of stores executed (Count)
system.cpu.executeStats0.instRate                   0                       # Inst execution rate ((Count/Cycle))
system.cpu.executeStats0.numFpAluAccesses           12                       # Number of float alu accesses (Count)
system.cpu.executeStats0.numFpRegReads             12                       # Number of times the floating registers were read (Count)
system.cpu.executeStats0.numFpRegWrites             0                       # Number of times the floating registers were written (Count)
system.cpu.executeStats0.numIntAluAccesses     16903293                       # Number of integer alu accesses (Count)
system.cpu.executeStats0.numIntRegReads      27415865                       # Number of times the integer registers were read (Count)
system.cpu.executeStats0.numIntRegWrites     10573170                       # Number of times the integer registers were written (Count)
system.cpu.executeStats0.numMemRefs           4224667                       # Number of memory refs (Count)
system.cpu.executeStats0.numMiscRegReads           30                       # Number of times the Misc registers were read (Count)
system.cpu.executeStats0.numVecAluAccesses            0                       # Number of vector alu accesses (Count)
system.cpu.executeStats0.numDiscardedOps            0                       # Number of ops (including micro ops) which were discarded before commit (Count)
system.cpu.fetchStats0.numInsts              16906233                       # Number of instructions fetched (thread level) (Count)
system.cpu.fetchStats0.numOps                16906281                       # Number of ops (including micro ops) fetched (thread level) (Count)
system.cpu.fetchStats0.fetchRate             0.027386                       # Number of inst fetches per cycle ((Count/Cycle))
system.cpu.fetchStats0.numBranches            4225077                       # Number of branches fetched (Count)
system.cpu.fetchStats0.branchRate            0.006844                       # Number of branch fetches per cycle (Ratio)
system.cpu.fetchStats0.numFetchSuspends             0                       # Number of times Execute suspended instruction fetching (Count)
system.cpu.icache.demandHits::cpu.inst       21133474                       # number of demand (read+write) hits (Count)
system.cpu.icache.demandHits::total          21133474                       # number of demand (read+write) hits (Count)
system.cpu.icache.overallHits::cpu.inst      21133474                       # number of overall hits (Count)
system.cpu.icache.overallHits::total         21133474                       # number of overall hits (Count)
system.cpu.icache.demandMisses::cpu.inst          406                       # number of demand (read+write) misses (Count)
system.cpu.icache.demandMisses::total             406                       # number of demand (read+write) misses (Count)
system.cpu.icache.overallMisses::cpu.inst          406                       # number of overall misses (Count)
system.cpu.icache.overallMisses::total            406                       # number of overall misses (Count)
system.cpu.icache.demandMissLatency::cpu.inst     51719000                       # number of demand (read+write) miss ticks (Tick)
system.cpu.icache.demandMissLatency::total     51719000                       # number of demand (read+write) miss ticks (Tick)
system.cpu.icache.overallMissLatency::cpu.inst     51719000                       # number of overall miss ticks (Tick)
system.cpu.icache.overallMissLatency::total     51719000                       # number of overall miss ticks (Tick)
system.cpu.icache.demandAccesses::cpu.inst     21133880                       # number of demand (read+write) accesses (Count)
system.cpu.icache.demandAccesses::total      21133880                       # number of demand (read+write) accesses (Count)
system.cpu.icache.overallAccesses::cpu.inst     21133880                       # number of overall (read+write) accesses (Count)
system.cpu.icache.overallAccesses::total     21133880                       # number of overall (read+write) accesses (Count)
system.cpu.icache.demandMissRate::cpu.inst     0.000019                       # miss rate for demand accesses (Ratio)
system.cpu.icache.demandMissRate::total      0.000019                       # miss rate for demand accesses (Ratio)
system.cpu.icache.overallMissRate::cpu.inst     0.000019                       # miss rate for overall accesses (Ratio)
system.cpu.icache.overallMissRate::total     0.000019                       # miss rate for overall accesses (Ratio)
system.cpu.icache.demandAvgMissLatency::cpu.inst 127386.699507                       # average overall miss latency in ticks ((Tick/Count))
system.cpu.icache.demandAvgMissLatency::total 127386.699507                       # average overall miss latency in ticks ((Tick/Count))
system.cpu.icache.overallAvgMissLatency::cpu.inst 127386.699507                       # average overall miss latency ((Tick/Count))
system.cpu.icache.overallAvgMissLatency::total 127386.699507                       # average overall miss latency ((Tick/Count))
system.cpu.icache.blockedCycles::no_mshrs            0                       # number of cycles access was blocked (Cycle)
system.cpu.icache.blockedCycles::no_targets            0                       # number of cycles access was blocked (Cycle)
system.cpu.icache.blockedCauses::no_mshrs            0                       # number of times access was blocked (Count)
system.cpu.icache.blockedCauses::no_targets            0                       # number of times access was blocked (Count)
system.cpu.icache.avgBlocked::no_mshrs            nan                       # average number of cycles each access was blocked ((Cycle/Count))
system.cpu.icache.avgBlocked::no_targets          nan                       # average number of cycles each access was blocked ((Cycle/Count))
system.cpu.icache.writebacks::writebacks           77                       # number of writebacks (Count)
system.cpu.icache.writebacks::total                77                       # number of writebacks (Count)
system.cpu.icache.demandMshrMisses::cpu.inst          406                       # number of demand (read+write) MSHR misses (Count)
system.cpu.icache.demandMshrMisses::total          406                       # number of demand (read+write) MSHR misses (Count)
system.cpu.icache.overallMshrMisses::cpu.inst          406                       # number of overall MSHR misses (Count)
system.cpu.icache.overallMshrMisses::total          406                       # number of overall MSHR misses (Count)
system.cpu.icache.demandMshrMissLatency::cpu.inst     50095000                       # number of demand (read+write) MSHR miss ticks (Tick)
system.cpu.icache.demandMshrMissLatency::total     50095000                       # number of demand (read+write) MSHR miss ticks (Tick)
system.cpu.icache.overallMshrMissLatency::cpu.inst     50095000                       # number of overall MSHR miss ticks (Tick)
system.cpu.icache.overallMshrMissLatency::total     50095000                       # number of overall MSHR miss ticks (Tick)
system.cpu.icache.demandMshrMissRate::cpu.inst     0.000019                       # mshr miss ratio for demand accesses (Ratio)
system.cpu.icache.demandMshrMissRate::total     0.000019                       # mshr miss ratio for demand accesses (Ratio)
system.cpu.icache.overallMshrMissRate::cpu.inst     0.000019                       # mshr miss ratio for overall accesses (Ratio)
system.cpu.icache.overallMshrMissRate::total     0.000019                       # mshr miss ratio for overall accesses (Ratio)
system.cpu.icache.demandAvgMshrMissLatency::cpu.inst 123386.699507                       # average overall mshr miss latency ((Tick/Count))
system.cpu.icache.demandAvgMshrMissLatency::total 123386.699507                       # average overall mshr miss latency ((Tick/Count))
system.cpu.icache.overallAvgMshrMissLatency::cpu.inst 123386.699507                       # average overall mshr miss latency ((Tick/Count))
system.cpu.icache.overallAvgMshrMissLatency::total 123386.699507                       # average overall mshr miss latency ((Tick/Count))
system.cpu.icache.replacements                     77                       # number of replacements (Count)
system.cpu.icache.ReadReq.hits::cpu.inst     21133474                       # number of ReadReq hits (Count)
system.cpu.icache.ReadReq.hits::total        21133474                       # number of ReadReq hits (Count)
system.cpu.icache.ReadReq.misses::cpu.inst          406                       # number of ReadReq misses (Count)
system.cpu.icache.ReadReq.misses::total           406                       # number of ReadReq misses (Count)
system.cpu.icache.ReadReq.missLatency::cpu.inst     51719000                       # number of ReadReq miss ticks (Tick)
system.cpu.icache.ReadReq.missLatency::total     51719000                       # number of ReadReq miss ticks (Tick)
system.cpu.icache.ReadReq.accesses::cpu.inst     21133880                       # number of ReadReq accesses(hits+misses) (Count)
system.cpu.icache.ReadReq.accesses::total     21133880                       # number of ReadReq accesses(hits+misses) (Count)
system.cpu.icache.ReadReq.missRate::cpu.inst     0.000019                       # miss rate for ReadReq accesses (Ratio)
system.cpu.icache.ReadReq.missRate::total     0.000019                       # miss rate for ReadReq accesses (Ratio)
system.cpu.icache.ReadReq.avgMissLatency::cpu.inst 127386.699507                       # average ReadReq miss latency ((Tick/Count))
system.cpu.icache.ReadReq.avgMissLatency::total 127386.699507                       # average ReadReq miss latency ((Tick/Count))
system.cpu.icache.ReadReq.mshrMisses::cpu.inst          406                       # number of ReadReq MSHR misses (Count)
system.cpu.icache.ReadReq.mshrMisses::total          406                       # number of ReadReq MSHR misses (Count)
system.cpu.icache.ReadReq.mshrMissLatency::cpu.inst     50095000                       # number of ReadReq MSHR miss ticks (Tick)
system.cpu.icache.ReadReq.mshrMissLatency::total     50095000                       # number of ReadReq MSHR miss ticks (Tick)
system.cpu.icache.ReadReq.mshrMissRate::cpu.inst     0.000019                       # mshr miss rate for ReadReq accesses (Ratio)
system.cpu.icache.ReadReq.mshrMissRate::total     0.000019                       # mshr miss rate for ReadReq accesses (Ratio)
system.cpu.icache.ReadReq.avgMshrMissLatency::cpu.inst 123386.699507                       # average ReadReq mshr miss latency ((Tick/Count))
system.cpu.icache.ReadReq.avgMshrMissLatency::total 123386.699507                       # average ReadReq mshr miss latency ((Tick/Count))
system.cpu.icache.power_state.pwrStateResidencyTicks::UNDEFINED 617320621000                       # Cumulative time (in ticks) in various power states (Tick)
system.cpu.icache.tags.tagsInUse           237.962694                       # Average ticks per tags in use ((Tick/Count))
system.cpu.icache.tags.totalRefs             21133880                       # Total number of references to valid blocks. (Count)
system.cpu.icache.tags.sampledRefs                406                       # Sample count of references to valid blocks. (Count)
system.cpu.icache.tags.avgRefs           52053.891626                       # Average number of references to valid blocks. ((Count/Count))
system.cpu.icache.tags.warmupTick              129000                       # The tick when the warmup percentage was hit. (Tick)
system.cpu.icache.tags.occupancies::cpu.inst   237.962694                       # Average occupied blocks per tick, per requestor ((Count/Tick))
system.cpu.icache.tags.avgOccs::cpu.inst     0.464771                       # Average percentage of cache occupancy ((Ratio/Tick))
system.cpu.icache.tags.avgOccs::total        0.464771                       # Average percentage of cache occupancy ((Ratio/Tick))
system.cpu.icache.tags.occupanciesTaskId::1024          329                       # Occupied blocks per task id (Count)
system.cpu.icache.tags.ageTaskId_1024::0           35                       # Occupied blocks per task id, per block age (Count)
system.cpu.icache.tags.ageTaskId_1024::1          101                       # Occupied blocks per task id, per block age (Count)
system.cpu.icache.tags.ageTaskId_1024::4          193                       # Occupied blocks per task id, per block age (Count)
system.cpu.icache.tags.ratioOccsTaskId::1024     0.642578                       # Ratio of occupied blocks and all blocks, per task id (Ratio)
system.cpu.icache.tags.tagAccesses           42268166                       # Number of tag accesses (Count)
system.cpu.icache.tags.dataAccesses          42268166                       # Number of data accesses (Count)
system.cpu.icache.tags.power_state.pwrStateResidencyTicks::UNDEFINED 617320621000                       # Cumulative time (in ticks) in various power states (Tick)
system.cpu.mmu.dtb.readHits                         0                       # read hits (Count)
system.cpu.mmu.dtb.readMisses                       0                       # read misses (Count)
system.cpu.mmu.dtb.readAccesses                     0                       # read accesses (Count)
system.cpu.mmu.dtb.writeHits                        0                       # write hits (Count)
system.cpu.mmu.dtb.writeMisses                      0                       # write misses (Count)
system.cpu.mmu.dtb.writeAccesses                    0                       # write accesses (Count)
system.cpu.mmu.dtb.hits                             0                       # Total TLB (read and write) hits (Count)
system.cpu.mmu.dtb.misses                           0                       # Total TLB (read and write) misses (Count)
system.cpu.mmu.dtb.accesses                         0                       # Total TLB (read and write) accesses (Count)
system.cpu.mmu.dtb.walker.num_4kb_walks             0                       # Completed page walks with 4KB pages (Count)
system.cpu.mmu.dtb.walker.num_2mb_walks             0                       # Completed page walks with 2MB pages (Count)
system.cpu.mmu.dtb.walker.power_state.pwrStateResidencyTicks::UNDEFINED 617320621000                       # Cumulative time (in ticks) in various power states (Tick)
system.cpu.mmu.itb.readHits                         0                       # read hits (Count)
system.cpu.mmu.itb.readMisses                       0                       # read misses (Count)
system.cpu.mmu.itb.readAccesses                     0                       # read accesses (Count)
system.cpu.mmu.itb.writeHits                        0                       # write hits (Count)
system.cpu.mmu.itb.writeMisses                      0                       # write misses (Count)
system.cpu.mmu.itb.writeAccesses                    0                       # write accesses (Count)
system.cpu.mmu.itb.hits                             0                       # Total TLB (read and write) hits (Count)
system.cpu.mmu.itb.misses                           0                       # Total TLB (read and write) misses (Count)
system.cpu.mmu.itb.accesses                         0                       # Total TLB (read and write) accesses (Count)
system.cpu.mmu.itb.walker.num_4kb_walks             0                       # Completed page walks with 4KB pages (Count)
system.cpu.mmu.itb.walker.num_2mb_walks             0                       # Completed page walks with 2MB pages (Count)
system.cpu.mmu.itb.walker.power_state.pwrStateResidencyTicks::UNDEFINED 617320621000                       # Cumulative time (in ticks) in various power states (Tick)
system.cpu.power_state.pwrStateResidencyTicks::ON 617320621000                       # Cumulative time (in ticks) in various power states (Tick)
system.cpu.thread_0.numInsts                        0                       # Number of Instructions committed (Count)
system.cpu.thread_0.numOps                          0                       # Number of Ops committed (Count)
system.cpu.thread_0.numMemRefs                      0                       # Number of Memory References (Count)
system.cpu.workload.numSyscalls                    18                       # Number of system calls (Count)
system.l2.demandHits::cpu.inst                      5                       # number of demand (read+write) hits (Count)
system.l2.demandHits::cpu.data                     25                       # number of demand (read+write) hits (Count)
system.l2.demandHits::total                        30                       # number of demand (read+write) hits (Count)
system.l2.overallHits::cpu.inst                     5                       # number of overall hits (Count)
system.l2.overallHits::cpu.data                    25                       # number of overall hits (Count)
system.l2.overallHits::total                       30                       # number of overall hits (Count)
system.l2.demandMisses::cpu.inst                  401                       # number of demand (read+write) misses (Count)
system.l2.demandMisses::cpu.data              4195229                       # number of demand (read+write) misses (Count)
system.l2.demandMisses::total                 4195630                       # number of demand (read+write) misses (Count)
system.l2.overallMisses::cpu.inst                 401                       # number of overall misses (Count)
system.l2.overallMisses::cpu.data             4195229                       # number of overall misses (Count)
system.l2.overallMisses::total                4195630                       # number of overall misses (Count)
system.l2.demandMissLatency::cpu.inst        47986000                       # number of demand (read+write) miss ticks (Tick)
system.l2.demandMissLatency::cpu.data    494892473000                       # number of demand (read+write) miss ticks (Tick)
system.l2.demandMissLatency::total       494940459000                       # number of demand (read+write) miss ticks (Tick)
system.l2.overallMissLatency::cpu.inst       47986000                       # number of overall miss ticks (Tick)
system.l2.overallMissLatency::cpu.data   494892473000                       # number of overall miss ticks (Tick)
system.l2.overallMissLatency::total      494940459000                       # number of overall miss ticks (Tick)
system.l2.demandAccesses::cpu.inst                406                       # number of demand (read+write) accesses (Count)
system.l2.demandAccesses::cpu.data            4195254                       # number of demand (read+write) accesses (Count)
system.l2.demandAccesses::total               4195660                       # number of demand (read+write) accesses (Count)
system.l2.overallAccesses::cpu.inst               406                       # number of overall (read+write) accesses (Count)
system.l2.overallAccesses::cpu.data           4195254                       # number of overall (read+write) accesses (Count)
system.l2.overallAccesses::total              4195660                       # number of overall (read+write) accesses (Count)
system.l2.demandMissRate::cpu.inst           0.987685                       # miss rate for demand accesses (Ratio)
system.l2.demandMissRate::cpu.data           0.999994                       # miss rate for demand accesses (Ratio)
system.l2.demandMissRate::total              0.999993                       # miss rate for demand accesses (Ratio)
system.l2.overallMissRate::cpu.inst          0.987685                       # miss rate for overall accesses (Ratio)
system.l2.overallMissRate::cpu.data          0.999994                       # miss rate for overall accesses (Ratio)
system.l2.overallMissRate::total             0.999993                       # miss rate for overall accesses (Ratio)
system.l2.demandAvgMissLatency::cpu.inst 119665.835411                       # average overall miss latency in ticks ((Tick/Count))
system.l2.demandAvgMissLatency::cpu.data 117965.544432                       # average overall miss latency in ticks ((Tick/Count))
system.l2.demandAvgMissLatency::total    117965.706938                       # average overall miss latency in ticks ((Tick/Count))
system.l2.overallAvgMissLatency::cpu.inst 119665.835411                       # average overall miss latency ((Tick/Count))
system.l2.overallAvgMissLatency::cpu.data 117965.544432                       # average overall miss latency ((Tick/Count))
system.l2.overallAvgMissLatency::total   117965.706938                       # average overall miss latency ((Tick/Count))
system.l2.blockedCycles::no_mshrs                   0                       # number of cycles access was blocked (Cycle)
system.l2.blockedCycles::no_targets                 0                       # number of cycles access was blocked (Cycle)
system.l2.blockedCauses::no_mshrs                   0                       # number of times access was blocked (Count)
system.l2.blockedCauses::no_targets                 0                       # number of times access was blocked (Count)
system.l2.avgBlocked::no_mshrs                    nan                       # average number of cycles each access was blocked ((Cycle/Count))
system.l2.avgBlocked::no_targets                  nan                       # average number of cycles each access was blocked ((Cycle/Count))
system.l2.writebacks::writebacks              2097305                       # number of writebacks (Count)
system.l2.writebacks::total                   2097305                       # number of writebacks (Count)
system.l2.demandMshrMisses::cpu.inst              401                       # number of demand (read+write) MSHR misses (Count)
system.l2.demandMshrMisses::cpu.data          4195229                       # number of demand (read+write) MSHR misses (Count)
system.l2.demandMshrMisses::total             4195630                       # number of demand (read+write) MSHR misses (Count)
system.l2.overallMshrMisses::cpu.inst             401                       # number of overall MSHR misses (Count)
system.l2.overallMshrMisses::cpu.data         4195229                       # number of overall MSHR misses (Count)
system.l2.overallMshrMisses::total            4195630                       # number of overall MSHR misses (Count)
system.l2.demandMshrMissLatency::cpu.inst     42372000                       # number of demand (read+write) MSHR miss ticks (Tick)
system.l2.demandMshrMissLatency::cpu.data 436159267000                       # number of demand (read+write) MSHR miss ticks (Tick)
system.l2.demandMshrMissLatency::total   436201639000                       # number of demand (read+write) MSHR miss ticks (Tick)
system.l2.overallMshrMissLatency::cpu.inst     42372000                       # number of overall MSHR miss ticks (Tick)
system.l2.overallMshrMissLatency::cpu.data 436159267000                       # number of overall MSHR miss ticks (Tick)
system.l2.overallMshrMissLatency::total  436201639000                       # number of overall MSHR miss ticks (Tick)
system.l2.demandMshrMissRate::cpu.inst       0.987685                       # mshr miss ratio for demand accesses (Ratio)
system.l2.demandMshrMissRate::cpu.data       0.999994                       # mshr miss ratio for demand accesses (Ratio)
system.l2.demandMshrMissRate::total          0.999993                       # mshr miss ratio for demand accesses (Ratio)
system.l2.overallMshrMissRate::cpu.inst      0.987685                       # mshr miss ratio for overall accesses (Ratio)
system.l2.overallMshrMissRate::cpu.data      0.999994                       # mshr miss ratio for overall accesses (Ratio)
system.l2.overallMshrMissRate::total         0.999993                       # mshr miss ratio for overall accesses (Ratio)
system.l2.demandAvgMshrMissLatency::cpu.inst 105665.835411                       # average overall mshr miss latency ((Tick/Count))
system.l2.demandAvgMshrMissLatency::cpu.data 103965.544432                       # average overall mshr miss latency ((Tick/Count))
system.l2.demandAvgMshrMissLatency::total 103965.706938                       # average overall mshr miss latency ((Tick/Count))
system.l2.overallAvgMshrMissLatency::cpu.inst 105665.835411                       # average overall mshr miss latency ((Tick/Count))
system.l2.overallAvgMshrMissLatency::cpu.data 103965.544432                       # average overall mshr miss latency ((Tick/Count))
system.l2.overallAvgMshrMissLatency::total 103965.706938                       # average overall mshr miss latency ((Tick/Count))
system.l2.replacements                        4191579                       # number of replacements (Count)
system.l2.ReadCleanReq.hits::cpu.inst               5                       # number of ReadCleanReq hits (Count)
system.l2.ReadCleanReq.hits::total                  5                       # number of ReadCleanReq hits (Count)
system.l2.ReadCleanReq.misses::cpu.inst           401                       # number of ReadCleanReq misses (Count)
system.l2.ReadCleanReq.misses::total              401                       # number of ReadCleanReq misses (Count)
system.l2.ReadCleanReq.missLatency::cpu.inst     47986000                       # number of ReadCleanReq miss ticks (Tick)
system.l2.ReadCleanReq.missLatency::total     47986000                       # number of ReadCleanReq miss ticks (Tick)
system.l2.ReadCleanReq.accesses::cpu.inst          406                       # number of ReadCleanReq accesses(hits+misses) (Count)
system.l2.ReadCleanReq.accesses::total            406                       # number of ReadCleanReq accesses(hits+misses) (Count)
system.l2.ReadCleanReq.missRate::cpu.inst     0.987685                       # miss rate for ReadCleanReq accesses (Ratio)
system.l2.ReadCleanReq.missRate::total       0.987685                       # miss rate for ReadCleanReq accesses (Ratio)
system.l2.ReadCleanReq.avgMissLatency::cpu.inst 119665.835411                       # average ReadCleanReq miss latency ((Tick/Count))
system.l2.ReadCleanReq.avgMissLatency::total 119665.835411                       # average ReadCleanReq miss latency ((Tick/Count))
system.l2.ReadCleanReq.mshrMisses::cpu.inst          401                       # number of ReadCleanReq MSHR misses (Count)
system.l2.ReadCleanReq.mshrMisses::total          401                       # number of ReadCleanReq MSHR misses (Count)
system.l2.ReadCleanReq.mshrMissLatency::cpu.inst     42372000                       # number of ReadCleanReq MSHR miss ticks (Tick)
system.l2.ReadCleanReq.mshrMissLatency::total     42372000                       # number of ReadCleanReq MSHR miss ticks (Tick)
system.l2.ReadCleanReq.mshrMissRate::cpu.inst     0.987685                       # mshr miss rate for ReadCleanReq accesses (Ratio)
system.l2.ReadCleanReq.mshrMissRate::total     0.987685                       # mshr miss rate for ReadCleanReq accesses (Ratio)
system.l2.ReadCleanReq.avgMshrMissLatency::cpu.inst 105665.835411                       # average ReadCleanReq mshr miss latency ((Tick/Count))
system.l2.ReadCleanReq.avgMshrMissLatency::total 105665.835411                       # average ReadCleanReq mshr miss latency ((Tick/Count))
system.l2.ReadExReq.hits::cpu.data                  3                       # number of ReadExReq hits (Count)
system.l2.ReadExReq.hits::total                     3                       # number of ReadExReq hits (Count)
system.l2.ReadExReq.misses::cpu.data          2097323                       # number of ReadExReq misses (Count)
system.l2.ReadExReq.misses::total             2097323                       # number of ReadExReq misses (Count)
system.l2.ReadExReq.missLatency::cpu.data 247945852000                       # number of ReadExReq miss ticks (Tick)
system.l2.ReadExReq.missLatency::total   247945852000                       # number of ReadExReq miss ticks (Tick)
system.l2.ReadExReq.accesses::cpu.data        2097326                       # number of ReadExReq accesses(hits+misses) (Count)
system.l2.ReadExReq.accesses::total           2097326                       # number of ReadExReq accesses(hits+misses) (Count)
system.l2.ReadExReq.missRate::cpu.data       0.999999                       # miss rate for ReadExReq accesses (Ratio)
system.l2.ReadExReq.missRate::total          0.999999                       # miss rate for ReadExReq accesses (Ratio)
system.l2.ReadExReq.avgMissLatency::cpu.data 118220.155884                       # average ReadExReq miss latency ((Tick/Count))
system.l2.ReadExReq.avgMissLatency::total 118220.155884                       # average ReadExReq miss latency ((Tick/Count))
system.l2.ReadExReq.mshrMisses::cpu.data      2097323                       # number of ReadExReq MSHR misses (Count)
system.l2.ReadExReq.mshrMisses::total         2097323                       # number of ReadExReq MSHR misses (Count)
system.l2.ReadExReq.mshrMissLatency::cpu.data 218583330000                       # number of ReadExReq MSHR miss ticks (Tick)
system.l2.ReadExReq.mshrMissLatency::total 218583330000                       # number of ReadExReq MSHR miss ticks (Tick)
system.l2.ReadExReq.mshrMissRate::cpu.data     0.999999                       # mshr miss rate for ReadExReq accesses (Ratio)
system.l2.ReadExReq.mshrMissRate::total      0.999999                       # mshr miss rate for ReadExReq accesses (Ratio)
system.l2.ReadExReq.avgMshrMissLatency::cpu.data 104220.155884                       # average ReadExReq mshr miss latency ((Tick/Count))
system.l2.ReadExReq.avgMshrMissLatency::total 104220.155884                       # average ReadExReq mshr miss latency ((Tick/Count))
system.l2.ReadSharedReq.hits::cpu.data             22                       # number of ReadSharedReq hits (Count)
system.l2.ReadSharedReq.hits::total                22                       # number of ReadSharedReq hits (Count)
system.l2.ReadSharedReq.misses::cpu.data      2097906                       # number of ReadSharedReq misses (Count)
system.l2.ReadSharedReq.misses::total         2097906                       # number of ReadSharedReq misses (Count)
system.l2.ReadSharedReq.missLatency::cpu.data 246946621000                       # number of ReadSharedReq miss ticks (Tick)
system.l2.ReadSharedReq.missLatency::total 246946621000                       # number of ReadSharedReq miss ticks (Tick)
system.l2.ReadSharedReq.accesses::cpu.data      2097928                       # number of ReadSharedReq accesses(hits+misses) (Count)
system.l2.ReadSharedReq.accesses::total       2097928                       # number of ReadSharedReq accesses(hits+misses) (Count)
system.l2.ReadSharedReq.missRate::cpu.data     0.999990                       # miss rate for ReadSharedReq accesses (Ratio)
system.l2.ReadSharedReq.missRate::total      0.999990                       # miss rate for ReadSharedReq accesses (Ratio)
system.l2.ReadSharedReq.avgMissLatency::cpu.data 117711.003734                       # average ReadSharedReq miss latency ((Tick/Count))
system.l2.ReadSharedReq.avgMissLatency::total 117711.003734                       # average ReadSharedReq miss latency ((Tick/Count))
system.l2.ReadSharedReq.mshrMisses::cpu.data      2097906                       # number of ReadSharedReq MSHR misses (Count)
system.l2.ReadSharedReq.mshrMisses::total      2097906                       # number of ReadSharedReq MSHR misses (Count)
system.l2.ReadSharedReq.mshrMissLatency::cpu.data 217575937000                       # number of ReadSharedReq MSHR miss ticks (Tick)
system.l2.ReadSharedReq.mshrMissLatency::total 217575937000                       # number of ReadSharedReq MSHR miss ticks (Tick)
system.l2.ReadSharedReq.mshrMissRate::cpu.data     0.999990                       # mshr miss rate for ReadSharedReq accesses (Ratio)
system.l2.ReadSharedReq.mshrMissRate::total     0.999990                       # mshr miss rate for ReadSharedReq accesses (Ratio)
system.l2.ReadSharedReq.avgMshrMissLatency::cpu.data 103711.003734                       # average ReadSharedReq mshr miss latency ((Tick/Count))
system.l2.ReadSharedReq.avgMshrMissLatency::total 103711.003734                       # average ReadSharedReq mshr miss latency ((Tick/Count))
system.l2.WritebackClean.hits::writebacks           77                       # number of WritebackClean hits (Count)
system.l2.WritebackClean.hits::total               77                       # number of WritebackClean hits (Count)
system.l2.WritebackClean.accesses::writebacks           77                       # number of WritebackClean accesses(hits+misses) (Count)
system.l2.WritebackClean.accesses::total           77                       # number of WritebackClean accesses(hits+misses) (Count)
system.l2.WritebackDirty.hits::writebacks      2097325                       # number of WritebackDirty hits (Count)
system.l2.WritebackDirty.hits::total          2097325                       # number of WritebackDirty hits (Count)
system.l2.WritebackDirty.accesses::writebacks      2097325                       # number of WritebackDirty accesses(hits+misses) (Count)
system.l2.WritebackDirty.accesses::total      2097325                       # number of WritebackDirty accesses(hits+misses) (Count)
system.l2.power_state.pwrStateResidencyTicks::UNDEFINED 617320621000                       # Cumulative time (in ticks) in various power states (Tick)
system.l2.tags.tagsInUse                  4090.466104                       # Average ticks per tags in use ((Tick/Count))
system.l2.tags.totalRefs                      8390478                       # Total number of references to valid blocks. (Count)
system.l2.tags.sampledRefs                    4195675                       # Sample count of references to valid blocks. (Count)
system.l2.tags.avgRefs                       1.999792                       # Average number of references to valid blocks. ((Count/Count))
system.l2.tags.warmupTick                      114000                       # The tick when the warmup percentage was hit. (Tick)
system.l2.tags.occupancies::writebacks       0.001519                       # Average occupied blocks per tick, per requestor ((Count/Tick))
system.l2.tags.occupancies::cpu.inst         0.483393                       # Average occupied blocks per tick, per requestor ((Count/Tick))
system.l2.tags.occupancies::cpu.data      4089.981192                       # Average occupied blocks per tick, per requestor ((Count/Tick))
system.l2.tags.avgOccs::writebacks           0.000000                       # Average percentage of cache occupancy ((Ratio/Tick))
system.l2.tags.avgOccs::cpu.inst             0.000118                       # Average percentage of cache occupancy ((Ratio/Tick))
system.l2.tags.avgOccs::cpu.data             0.998531                       # Average percentage of cache occupancy ((Ratio/Tick))
system.l2.tags.avgOccs::total                0.998649                       # Average percentage of cache occupancy ((Ratio/Tick))
system.l2.tags.occupanciesTaskId::1024           4096                       # Occupied blocks per task id (Count)
system.l2.tags.ageTaskId_1024::0                   61                       # Occupied blocks per task id, per block age (Count)
system.l2.tags.ageTaskId_1024::1                  541                       # Occupied blocks per task id, per block age (Count)
system.l2.tags.ageTaskId_1024::2                 3494                       # Occupied blocks per task id, per block age (Count)
system.l2.tags.ratioOccsTaskId::1024                1                       # Ratio of occupied blocks and all blocks, per task id (Ratio)
system.l2.tags.tagAccesses                   71319499                       # Number of tag accesses (Count)
system.l2.tags.dataAccesses                  71319499                       # Number of data accesses (Count)
system.l2.tags.power_state.pwrStateResidencyTicks::UNDEFINED 617320621000                       # Cumulative time (in ticks) in various power states (Tick)
system.l2bus.transDist::ReadResp              2098334                       # Transaction distribution (Count)
system.l2bus.transDist::WritebackDirty        4194630                       # Transaction distribution (Count)
system.l2bus.transDist::WritebackClean             77                       # Transaction distribution (Count)
system.l2bus.transDist::CleanEvict            4191929                       # Transaction distribution (Count)
system.l2bus.transDist::ReadExReq             2097326                       # Transaction distribution (Count)
system.l2bus.transDist::ReadExResp            2097326                       # Transaction distribution (Count)
system.l2bus.transDist::ReadCleanReq              406                       # Transaction distribution (Count)
system.l2bus.transDist::ReadSharedReq         2097928                       # Transaction distribution (Count)
system.l2bus.pktCount_system.cpu.icache.mem_side_port::system.l2.cpu_side_port          889                       # Packet count per connected requestor and responder (Count)
system.l2bus.pktCount_system.cpu.dcache.mem_side_port::system.l2.cpu_side_port     12585250                       # Packet count per connected requestor and responder (Count)
system.l2bus.pktCount::total                 12586139                       # Packet count per connected requestor and responder (Count)
system.l2bus.pktSize_system.cpu.icache.mem_side_port::system.l2.cpu_side_port        30912                       # Cumulative packet size per connected requestor and responder (Byte)
system.l2bus.pktSize_system.cpu.dcache.mem_side_port::system.l2.cpu_side_port    402725056                       # Cumulative packet size per connected requestor and responder (Byte)
system.l2bus.pktSize::total                 402755968                       # Cumulative packet size per connected requestor and responder (Byte)
system.l2bus.snoops                           4191817                       # Total snoops (Count)
system.l2bus.snoopTraffic                   134227520                       # Total snoop traffic (Byte)
system.l2bus.snoopFanout::samples             8387477                       # Request fanout histogram (Count)
system.l2bus.snoopFanout::mean               0.000057                       # Request fanout histogram (Count)
system.l2bus.snoopFanout::stdev              0.007541                       # Request fanout histogram (Count)
system.l2bus.snoopFanout::underflows                0      0.00%      0.00% # Request fanout histogram (Count)
system.l2bus.snoopFanout::0                   8387000     99.99%     99.99% # Request fanout histogram (Count)
system.l2bus.snoopFanout::1                       477      0.01%    100.00% # Request fanout histogram (Count)
system.l2bus.snoopFanout::2                         0      0.00%    100.00% # Request fanout histogram (Count)
system.l2bus.snoopFanout::overflows                 0      0.00%    100.00% # Request fanout histogram (Count)
system.l2bus.snoopFanout::min_value                 0                       # Request fanout histogram (Count)
system.l2bus.snoopFanout::max_value                 1                       # Request fanout histogram (Count)
system.l2bus.snoopFanout::total               8387477                       # Request fanout histogram (Count)
system.l2bus.power_state.pwrStateResidencyTicks::UNDEFINED 617320621000                       # Cumulative time (in ticks) in various power states (Tick)
system.l2bus.reqLayer0.occupancy          12585283000                       # Layer occupancy (ticks) (Tick)
system.l2bus.reqLayer0.utilization                0.0                       # Layer utilization (Ratio)
system.l2bus.respLayer0.occupancy             1218000                       # Layer occupancy (ticks) (Tick)
system.l2bus.respLayer0.utilization               0.0                       # Layer utilization (Ratio)
system.l2bus.respLayer1.occupancy         12585762000                       # Layer occupancy (ticks) (Tick)
system.l2bus.respLayer1.utilization               0.0                       # Layer utilization (Ratio)
system.l2bus.snoop_filter.totRequests         8390479                       # Total number of requests made to the snoop filter. (Count)
system.l2bus.snoop_filter.hitSingleRequests      4194819                       # Number of requests hitting in the snoop filter with a single holder of the requested data. (Count)
system.l2bus.snoop_filter.hitMultiRequests            1                       # Number of requests hitting in the snoop filter with multiple (>1) holders of the requested data. (Count)
system.l2bus.snoop_filter.totSnoops               476                       # Total number of snoops made to the snoop filter. (Count)
system.l2bus.snoop_filter.hitSingleSnoops          476                       # Number of snoops hitting in the snoop filter with a single holder of the requested data. (Count)
system.l2bus.snoop_filter.hitMultiSnoops            0                       # Number of snoops hitting in the snoop filter with multiple (>1) holders of the requested data. (Count)
system.l3.demandMisses::cpu.inst                  401                       # number of demand (read+write) misses (Count)
system.l3.demandMisses::cpu.data              4195229                       # number of demand (read+write) misses (Count)
system.l3.demandMisses::total                 4195630                       # number of demand (read+write) misses (Count)
system.l3.overallMisses::cpu.inst                 401                       # number of overall misses (Count)
system.l3.overallMisses::cpu.data             4195229                       # number of overall misses (Count)
system.l3.overallMisses::total                4195630                       # number of overall misses (Count)
system.l3.demandMissLatency::cpu.inst        35956000                       # number of demand (read+write) miss ticks (Tick)
system.l3.demandMissLatency::cpu.data    369035603000                       # number of demand (read+write) miss ticks (Tick)
system.l3.demandMissLatency::total       369071559000                       # number of demand (read+write) miss ticks (Tick)
system.l3.overallMissLatency::cpu.inst       35956000                       # number of overall miss ticks (Tick)
system.l3.overallMissLatency::cpu.data   369035603000                       # number of overall miss ticks (Tick)
system.l3.overallMissLatency::total      369071559000                       # number of overall miss ticks (Tick)
system.l3.demandAccesses::cpu.inst                401                       # number of demand (read+write) accesses (Count)
system.l3.demandAccesses::cpu.data            4195229                       # number of demand (read+write) accesses (Count)
system.l3.demandAccesses::total               4195630                       # number of demand (read+write) accesses (Count)
system.l3.overallAccesses::cpu.inst               401                       # number of overall (read+write) accesses (Count)
system.l3.overallAccesses::cpu.data           4195229                       # number of overall (read+write) accesses (Count)
system.l3.overallAccesses::total              4195630                       # number of overall (read+write) accesses (Count)
system.l3.demandMissRate::cpu.inst                  1                       # miss rate for demand accesses (Ratio)
system.l3.demandMissRate::cpu.data                  1                       # miss rate for demand accesses (Ratio)
system.l3.demandMissRate::total                     1                       # miss rate for demand accesses (Ratio)
system.l3.overallMissRate::cpu.inst                 1                       # miss rate for overall accesses (Ratio)
system.l3.overallMissRate::cpu.data                 1                       # miss rate for overall accesses (Ratio)
system.l3.overallMissRate::total                    1                       # miss rate for overall accesses (Ratio)
system.l3.demandAvgMissLatency::cpu.inst 89665.835411                       # average overall miss latency in ticks ((Tick/Count))
system.l3.demandAvgMissLatency::cpu.data 87965.544432                       # average overall miss latency in ticks ((Tick/Count))
system.l3.demandAvgMissLatency::total    87965.706938                       # average overall miss latency in ticks ((Tick/Count))
[...]
system.mem_ctrl.dram.bytesInstRead::total        25664                       # Number of instructions bytes read from this memory (Byte)
system.mem_ctrl.dram.bytesWritten::writebacks    134227520                       # Number of bytes written to this memory (Byte)
system.mem_ctrl.dram.bytesWritten::total    134227520                       # Number of bytes written to this memory (Byte)
system.mem_ctrl.dram.numReads::cpu.inst           401                       # Number of read requests responded to by this memory (Count)
system.mem_ctrl.dram.numReads::cpu.data       4195229                       # Number of read requests responded to by this memory (Count)
system.mem_ctrl.dram.numReads::total          4195630                       # Number of read requests responded to by this memory (Count)
system.mem_ctrl.dram.numWrites::writebacks      2097305                       # Number of write requests responded to by this memory (Count)
system.mem_ctrl.dram.numWrites::total         2097305                       # Number of write requests responded to by this memory (Count)
system.mem_ctrl.dram.bwRead::cpu.inst           41573                       # Total read bandwidth from this memory ((Byte/Second))
system.mem_ctrl.dram.bwRead::cpu.data       434935505                       # Total read bandwidth from this memory ((Byte/Second))
system.mem_ctrl.dram.bwRead::total          434977078                       # Total read bandwidth from this memory ((Byte/Second))
system.mem_ctrl.dram.bwInstRead::cpu.inst        41573                       # Instruction read bandwidth from this memory ((Byte/Second))
system.mem_ctrl.dram.bwInstRead::total          41573                       # Instruction read bandwidth from this memory ((Byte/Second))
system.mem_ctrl.dram.bwWrite::writebacks    217435665                       # Write bandwidth from this memory ((Byte/Second))
system.mem_ctrl.dram.bwWrite::total         217435665                       # Write bandwidth from this memory ((Byte/Second))
system.mem_ctrl.dram.bwTotal::writebacks    217435665                       # Total bandwidth to/from this memory ((Byte/Second))
system.mem_ctrl.dram.bwTotal::cpu.inst          41573                       # Total bandwidth to/from this memory ((Byte/Second))
system.mem_ctrl.dram.bwTotal::cpu.data      434935505                       # Total bandwidth to/from this memory ((Byte/Second))
system.mem_ctrl.dram.bwTotal::total         652412744                       # Total bandwidth to/from this memory ((Byte/Second))
system.mem_ctrl.dram.readBursts               4195538                       # Number of DRAM read bursts (Count)
system.mem_ctrl.dram.writeBursts              2097279                       # Number of DRAM write bursts (Count)
system.mem_ctrl.dram.perBankRdBursts::0        262307                       # Per bank write bursts (Count)
system.mem_ctrl.dram.perBankRdBursts::1        262273                       # Per bank write bursts (Count)
system.mem_ctrl.dram.perBankRdBursts::2        262277                       # Per bank write bursts (Count)
system.mem_ctrl.dram.perBankRdBursts::3        262217                       # Per bank write bursts (Count)
system.mem_ctrl.dram.perBankRdBursts::4        262195                       # Per bank write bursts (Count)
system.mem_ctrl.dram.perBankRdBursts::5        262319                       # Per bank write bursts (Count)
system.mem_ctrl.dram.perBankRdBursts::6        262204                       # Per bank write bursts (Count)
system.mem_ctrl.dram.perBankRdBursts::7        262179                       # Per bank write bursts (Count)
system.mem_ctrl.dram.perBankRdBursts::8        262207                       # Per bank write bursts (Count)
system.mem_ctrl.dram.perBankRdBursts::9        262248                       # Per bank write bursts (Count)
system.mem_ctrl.dram.perBankRdBursts::10       262067                       # Per bank write bursts (Count)
system.mem_ctrl.dram.perBankRdBursts::11       262146                       # Per bank write bursts (Count)
system.mem_ctrl.dram.perBankRdBursts::12       262145                       # Per bank write bursts (Count)
system.mem_ctrl.dram.perBankRdBursts::13       262226                       # Per bank write bursts (Count)
system.mem_ctrl.dram.perBankRdBursts::14       262293                       # Per bank write bursts (Count)
system.mem_ctrl.dram.perBankRdBursts::15       262235                       # Per bank write bursts (Count)
system.mem_ctrl.dram.perBankWrBursts::0        131072                       # Per bank write bursts (Count)
system.mem_ctrl.dram.perBankWrBursts::1        131072                       # Per bank write bursts (Count)
system.mem_ctrl.dram.perBankWrBursts::2        131072                       # Per bank write bursts (Count)
system.mem_ctrl.dram.perBankWrBursts::3        131072                       # Per bank write bursts (Count)
system.mem_ctrl.dram.perBankWrBursts::4        131073                       # Per bank write bursts (Count)
system.mem_ctrl.dram.perBankWrBursts::5        131117                       # Per bank write bursts (Count)
system.mem_ctrl.dram.perBankWrBursts::6        131088                       # Per bank write bursts (Count)
system.mem_ctrl.dram.perBankWrBursts::7        131072                       # Per bank write bursts (Count)
system.mem_ctrl.dram.perBankWrBursts::8        131084                       # Per bank write bursts (Count)
system.mem_ctrl.dram.perBankWrBursts::9        131141                       # Per bank write bursts (Count)
system.mem_ctrl.dram.perBankWrBursts::10       131056                       # Per bank write bursts (Count)
system.mem_ctrl.dram.perBankWrBursts::11       131072                       # Per bank write bursts (Count)
system.mem_ctrl.dram.perBankWrBursts::12       131072                       # Per bank write bursts (Count)
system.mem_ctrl.dram.perBankWrBursts::13       131072                       # Per bank write bursts (Count)
system.mem_ctrl.dram.perBankWrBursts::14       131072                       # Per bank write bursts (Count)
system.mem_ctrl.dram.perBankWrBursts::15       131072                       # Per bank write bursts (Count)
system.mem_ctrl.dram.totQLat              33358551750                       # Total ticks spent queuing (Tick)
system.mem_ctrl.dram.totBusLat            20977690000                       # Total ticks spent in databus transfers (Tick)
system.mem_ctrl.dram.totMemAccLat        112024889250                       # Total ticks spent from burst creation until serviced by the DRAM (Tick)
system.mem_ctrl.dram.avgQLat                  7950.96                       # Average queueing delay per DRAM burst ((Tick/Count))
system.mem_ctrl.dram.avgBusLat                5000.00                       # Average bus latency per DRAM burst ((Tick/Count))
system.mem_ctrl.dram.avgMemAccLat            26700.96                       # Average memory access latency per DRAM burst ((Tick/Count))
system.mem_ctrl.dram.readRowHits              3786913                       # Number of row buffer hits during reads (Count)
system.mem_ctrl.dram.writeRowHits             1857325                       # Number of row buffer hits during writes (Count)
system.mem_ctrl.dram.readRowHitRate             90.26                       # Row buffer hit rate for reads (Ratio)
system.mem_ctrl.dram.writeRowHitRate            88.56                       # Row buffer hit rate for writes (Ratio)
system.mem_ctrl.dram.bytesPerActivate::samples       648577                       # Bytes accessed per row activation (Byte)
system.mem_ctrl.dram.bytesPerActivate::mean   620.958585                       # Bytes accessed per row activation (Byte)
system.mem_ctrl.dram.bytesPerActivate::gmean   405.831271                       # Bytes accessed per row activation (Byte)
system.mem_ctrl.dram.bytesPerActivate::stdev   416.492553                       # Bytes accessed per row activation (Byte)
system.mem_ctrl.dram.bytesPerActivate::0-127        95173     14.67%     14.67% # Bytes accessed per row activation (Byte)
system.mem_ctrl.dram.bytesPerActivate::128-255       117694     18.15%     32.82% # Bytes accessed per row activation (Byte)
system.mem_ctrl.dram.bytesPerActivate::256-383        35600      5.49%     38.31% # Bytes accessed per row activation (Byte)
system.mem_ctrl.dram.bytesPerActivate::384-511        19767      3.05%     41.36% # Bytes accessed per row activation (Byte)
system.mem_ctrl.dram.bytesPerActivate::512-639        29213      4.50%     45.86% # Bytes accessed per row activation (Byte)
system.mem_ctrl.dram.bytesPerActivate::640-767        19080      2.94%     48.80% # Bytes accessed per row activation (Byte)
system.mem_ctrl.dram.bytesPerActivate::768-895        20917      3.23%     52.03% # Bytes accessed per row activation (Byte)
system.mem_ctrl.dram.bytesPerActivate::896-1023        16841      2.60%     54.62% # Bytes accessed per row activation (Byte)
system.mem_ctrl.dram.bytesPerActivate::1024-1151       294292     45.38%    100.00% # Bytes accessed per row activation (Byte)
system.mem_ctrl.dram.bytesPerActivate::total       648577                       # Bytes accessed per row activation (Byte)
system.mem_ctrl.dram.dramBytesRead          268514432                       # Total bytes read (Byte)
system.mem_ctrl.dram.dramBytesWritten       134225856                       # Total bytes written (Byte)
system.mem_ctrl.dram.avgRdBW               434.967540                       # Average DRAM read bandwidth in MiBytes/s ((Byte/Second))
system.mem_ctrl.dram.avgWrBW               217.432970                       # Average DRAM write bandwidth in MiBytes/s ((Byte/Second))
system.mem_ctrl.dram.peakBW                  12800.00                       # Theoretical peak bandwidth in MiByte/s ((Byte/Second))
system.mem_ctrl.dram.busUtil                     5.10                       # Data bus utilization in percentage (Ratio)
system.mem_ctrl.dram.busUtilRead                 3.40                       # Data bus utilization in percentage for reads (Ratio)
system.mem_ctrl.dram.busUtilWrite                1.70                       # Data bus utilization in percentage for writes (Ratio)
system.mem_ctrl.dram.pageHitRate                89.69                       # Row buffer hit rate, read and write combined (Ratio)
system.mem_ctrl.dram.power_state.pwrStateResidencyTicks::UNDEFINED 617320621000                       # Cumulative time (in ticks) in various power states (Tick)
system.mem_ctrl.dram.rank0.actEnergy       2315095020                       # Energy for activate commands per rank (pJ) (Joule)
system.mem_ctrl.dram.rank0.preEnergy       1230494595                       # Energy for precharge commands per rank (pJ) (Joule)
system.mem_ctrl.dram.rank0.readEnergy     14979512940                       # Energy for read commands per rank (pJ) (Joule)
system.mem_ctrl.dram.rank0.writeEnergy     5473890360                       # Energy for write commands per rank (pJ) (Joule)
system.mem_ctrl.dram.rank0.refreshEnergy 48730503120.000008                       # Energy for refresh commands per rank (pJ) (Joule)
system.mem_ctrl.dram.rank0.actBackEnergy 143169324780                       # Energy for active background per rank (pJ) (Joule)
system.mem_ctrl.dram.rank0.preBackEnergy 116487476640                       # Energy for precharge background per rank (pJ) (Joule)
system.mem_ctrl.dram.rank0.actPowerDownEnergy            0                       # Energy for active power-down per rank (pJ) (Joule)
system.mem_ctrl.dram.rank0.prePowerDownEnergy            0                       # Energy for precharge power-down per rank (pJ) (Joule)
system.mem_ctrl.dram.rank0.selfRefreshEnergy            0                       # Energy for self refresh per rank (pJ) (Joule)
system.mem_ctrl.dram.rank0.totalEnergy   332386297455                       # Total energy per rank (pJ) (Joule)
system.mem_ctrl.dram.rank0.averagePower    538.433816                       # Core power per rank (mW) (Watt)
system.mem_ctrl.dram.rank0.totalIdleTime            0                       # Total Idle time Per DRAM Rank (Tick)
system.mem_ctrl.dram.rank0.pwrStateTime::IDLE 298939491000                       # Time in different power states (Tick)
system.mem_ctrl.dram.rank0.pwrStateTime::REF  20613580000                       # Time in different power states (Tick)
system.mem_ctrl.dram.rank0.pwrStateTime::SREF            0                       # Time in different power states (Tick)
system.mem_ctrl.dram.rank0.pwrStateTime::PRE_PDN            0                       # Time in different power states (Tick)
system.mem_ctrl.dram.rank0.pwrStateTime::ACT 297767550000                       # Time in different power states (Tick)
system.mem_ctrl.dram.rank0.pwrStateTime::ACT_PDN            0                       # Time in different power states (Tick)
system.mem_ctrl.dram.rank1.actEnergy       2315759040                       # Energy for activate commands per rank (pJ) (Joule)
system.mem_ctrl.dram.rank1.preEnergy       1230855120                       # Energy for precharge commands per rank (pJ) (Joule)
system.mem_ctrl.dram.rank1.readEnergy     14976628380                       # Energy for read commands per rank (pJ) (Joule)
system.mem_ctrl.dram.rank1.writeEnergy     5473906020                       # Energy for write commands per rank (pJ) (Joule)
system.mem_ctrl.dram.rank1.refreshEnergy 48730503120.000008                       # Energy for refresh commands per rank (pJ) (Joule)
system.mem_ctrl.dram.rank1.actBackEnergy 143162268750                       # Energy for active background per rank (pJ) (Joule)
system.mem_ctrl.dram.rank1.preBackEnergy 116493418560                       # Energy for precharge background per rank (pJ) (Joule)
system.mem_ctrl.dram.rank1.actPowerDownEnergy            0                       # Energy for active power-down per rank (pJ) (Joule)
system.mem_ctrl.dram.rank1.prePowerDownEnergy            0                       # Energy for precharge power-down per rank (pJ) (Joule)
system.mem_ctrl.dram.rank1.selfRefreshEnergy            0                       # Energy for self refresh per rank (pJ) (Joule)
system.mem_ctrl.dram.rank1.totalEnergy   332383338990                       # Total energy per rank (pJ) (Joule)
system.mem_ctrl.dram.rank1.averagePower    538.429023                       # Core power per rank (mW) (Watt)
system.mem_ctrl.dram.rank1.totalIdleTime            0                       # Total Idle time Per DRAM Rank (Tick)
system.mem_ctrl.dram.rank1.pwrStateTime::IDLE 298953161750                       # Time in different power states (Tick)
system.mem_ctrl.dram.rank1.pwrStateTime::REF  20613580000                       # Time in different power states (Tick)
system.mem_ctrl.dram.rank1.pwrStateTime::SREF            0                       # Time in different power states (Tick)
system.mem_ctrl.dram.rank1.pwrStateTime::PRE_PDN            0                       # Time in different power states (Tick)
system.mem_ctrl.dram.rank1.pwrStateTime::ACT 297753879250                       # Time in different power states (Tick)
system.mem_ctrl.dram.rank1.pwrStateTime::ACT_PDN            0                       # Time in different power states (Tick)
system.mem_ctrl.power_state.pwrStateResidencyTicks::UNDEFINED 617320621000                       # Cumulative time (in ticks) in various power states (Tick)
system.membus.transDist::ReadResp             2098307                       # Transaction distribution (Count)
system.membus.transDist::WritebackDirty       2097305                       # Transaction distribution (Count)
system.membus.transDist::CleanEvict           1835943                       # Transaction distribution (Count)
system.membus.transDist::ReadExReq            2097323                       # Transaction distribution (Count)
system.membus.transDist::ReadExResp           2097323                       # Transaction distribution (Count)
system.membus.transDist::ReadSharedReq        2098307                       # Transaction distribution (Count)
system.membus.pktCount_system.l3.mem_side_port::system.mem_ctrl.port     12324508                       # Packet count per connected requestor and responder (Count)
system.membus.pktCount::total                12324508                       # Packet count per connected requestor and responder (Count)
system.membus.pktSize_system.l3.mem_side_port::system.mem_ctrl.port    402747840                       # Cumulative packet size per connected requestor and responder (Byte)
system.membus.pktSize::total                402747840                       # Cumulative packet size per connected requestor and responder (Byte)
system.membus.snoops                                0                       # Total snoops (Count)
system.membus.snoopTraffic                          0                       # Total snoop traffic (Byte)
system.membus.snoopFanout::samples            4195630                       # Request fanout histogram (Count)
system.membus.snoopFanout::mean                     0                       # Request fanout histogram (Count)
system.membus.snoopFanout::stdev                    0                       # Request fanout histogram (Count)
system.membus.snoopFanout::underflows               0      0.00%      0.00% # Request fanout histogram (Count)
system.membus.snoopFanout::0                  4195630    100.00%    100.00% # Request fanout histogram (Count)
system.membus.snoopFanout::1                        0      0.00%    100.00% # Request fanout histogram (Count)
system.membus.snoopFanout::overflows                0      0.00%    100.00% # Request fanout histogram (Count)
system.membus.snoopFanout::min_value                0                       # Request fanout histogram (Count)
system.membus.snoopFanout::max_value                0                       # Request fanout histogram (Count)
system.membus.snoopFanout::total              4195630                       # Request fanout histogram (Count)
system.membus.power_state.pwrStateResidencyTicks::UNDEFINED 617320621000                       # Cumulative time (in ticks) in various power states (Tick)
system.membus.reqLayer0.occupancy         16518098000                       # Layer occupancy (ticks) (Tick)
system.membus.reqLayer0.utilization               0.0                       # Layer utilization (Ratio)
system.membus.respLayer0.occupancy        22092309750                       # Layer occupancy (ticks) (Tick)
system.membus.respLayer0.utilization              0.0                       # Layer utilization (Ratio)
system.membus.snoop_filter.totRequests        8128878                       # Total number of requests made to the snoop filter. (Count)
system.membus.snoop_filter.hitSingleRequests      3933248                       # Number of requests hitting in the snoop filter with a single holder of the requested data. (Count)
system.membus.snoop_filter.hitMultiRequests            0                       # Number of requests hitting in the snoop filter with multiple (>1) holders of the requested data. (Count)
system.membus.snoop_filter.totSnoops                0                       # Total number of snoops made to the snoop filter. (Count)
system.membus.snoop_filter.hitSingleSnoops            0                       # Number of snoops hitting in the snoop filter with a single holder of the requested data. (Count)
system.membus.snoop_filter.hitMultiSnoops            0                       # Number of snoops hitting in the snoop filter with multiple (>1) holders of the requested data. (Count)
system.workload.inst.arm                            0                       # number of arm instructions executed (Count)
system.workload.inst.quiesce                        0                       # number of quiesce instructions executed (Count)

---------- End Simulation Statistics   ----------
