
---------- Begin Simulation Statistics ----------
simSeconds                                   1.335030                       # Number of seconds simulated (Second)
simTicks                                 1335029815000                       # Number of ticks simulated (Tick)
finalTick                                1335029815000                       # Number of ticks from beginning of simulation (restored from checkpoints and never reset) (Tick)
simFreq                                  1000000000000                       # The number of ticks per simulated second ((Tick/Second))
hostSeconds                                     44.38                       # Real time elapsed on the host (Second)
hostTickRate                              30085164692                       # The number of ticks simulated per host second (ticks/s) ((Tick/Second))
hostMemory                                     759880                       # Number of bytes of host memory used (Byte)
simInsts                                     42065522                       # Number of instructions simulated (Count)
simOps                                       42065570                       # Number of ops (including micro ops) simulated (Count)
hostInstRate                                   947953                       # Simulator instruction rate (inst/s) ((Count/Second))
hostOpRate                                     947954                       # Simulator op (including micro ops) rate (op/s) ((Count/Second))
system.clk_domain.clock                          1000                       # Clock period in ticks (Tick)
system.clk_domain.voltage_domain.voltage            1                       # Voltage in Volts (Volt)
system.cpu.numCycles                       1335029815                       # Number of cpu cycles simulated (Cycle)
system.cpu.cpi                              31.724541                       # CPI: cycles per instruction (core level) ((Cycle/Count))
system.cpu.ipc                               0.031521                       # IPC: instructions per cycle (core level) ((Count/Cycle))
system.cpu.numWorkItemsStarted                      0                       # Number of work items this cpu started (Count)
system.cpu.numWorkItemsCompleted                    0                       # Number of work items this cpu completed (Count)
system.cpu.commitStats0.numInsts             42081927                       # Number of instructions committed (thread level) (Count)
system.cpu.commitStats0.numOps               42081975                       # Number of ops (including micro ops) committed (thread level) (Count)
system.cpu.commitStats0.numInstsNotNOP              0                       # Number of instructions committed excluding NOPs or prefetches (Count)
system.cpu.commitStats0.numOpsNotNOP                0                       # Number of Ops (including micro ops) Simulated (Count)
system.cpu.commitStats0.cpi                 31.724541                       # CPI: cycles per instruction (thread level) ((Cycle/Count))
system.cpu.commitStats0.ipc                  0.031521                       # IPC: instructions per cycle (thread level) ((Count/Cycle))
system.cpu.commitStats0.numMemRefs                  0                       # Number of memory references committed (Count)
system.cpu.commitStats0.numFpInsts                 12                       # Number of float instructions (Count)
system.cpu.commitStats0.numIntInsts          42078955                       # Number of integer instructions (Count)
system.cpu.commitStats0.numLoadInsts          4212122                       # Number of load instructions (Count)
system.cpu.commitStats0.numStoreInsts         4215489                       # Number of store instructions (Count)
system.cpu.commitStats0.numVecInsts                 0                       # Number of vector instructions (Count)
system.cpu.commitStats0.committedInstType::No_OpClass          115      0.00%      0.00% # Class of committed instruction. (Count)
system.cpu.commitStats0.committedInstType::IntAlu     33654216     79.97%     79.97% # Class of committed instruction. (Count)
system.cpu.commitStats0.committedInstType::IntMult           27      0.00%     79.97% # Class of committed instruction. (Count)
system.cpu.commitStats0.committedInstType::IntDiv            6      0.00%     79.97% # Class of committed instruction. (Count)
system.cpu.commitStats0.committedInstType::FloatAdd            0      0.00%     79.97% # Class of committed instruction. (Count)
system.cpu.commitStats0.committedInstType::FloatCmp            0      0.00%     79.97% # Class of committed instruction. (Count)
system.cpu.commitStats0.committedInstType::FloatCvt            0      0.00%     79.97% # Class of committed instruction. (Count)
system.cpu.commitStats0.committedInstType::FloatMult            0      0.00%     79.97% # Class of committed instruction. (Count)
system.cpu.commitStats0.committedInstType::FloatMultAcc            0      0.00%     79.97% # Class of committed instruction. (Count)
system.cpu.commitStats0.committedInstType::FloatDiv            0      0.00%     79.97% # Class of committed instruction. (Count)
system.cpu.commitStats0.committedInstType::FloatMisc            0      0.00%     79.97% # Class of committed instruction. (Count)
system.cpu.commitStats0.committedInstType::FloatSqrt            0      0.00%     79.97% # Class of committed instruction. (Count)
system.cpu.commitStats0.committedInstType::SimdAdd            0      0.00%     79.97% # Class of committed instruction. (Count)
system.cpu.commitStats0.committedInstType::SimdAddAcc            0      0.00%     79.97% # Class of committed instruction. (Count)
system.cpu.commitStats0.committedInstType::SimdAlu            0      0.00%     79.97% # Class of committed instruction. (Count)
system.cpu.commitStats0.committedInstType::SimdCmp            0      0.00%     79.97% # Class of committed instruction. (Count)
system.cpu.commitStats0.committedInstType::SimdCvt            0      0.00%     79.97% # Class of committed instruction. (Count)
system.cpu.commitStats0.committedInstType::SimdMisc            0      0.00%     79.97% # Class of committed instruction. (Count)
system.cpu.commitStats0.committedInstType::SimdMult            0      0.00%     79.97% # Class of committed instruction. (Count)
system.cpu.commitStats0.committedInstType::SimdMultAcc            0      0.00%     79.97% # Class of committed instruction. (Count)
system.cpu.commitStats0.committedInstType::SimdMatMultAcc            0      0.00%     79.97% # Class of committed instruction. (Count)
system.cpu.commitStats0.committedInstType::SimdShift            0      0.00%     79.97% # Class of committed instruction. (Count)
system.cpu.commitStats0.committedInstType::SimdShiftAcc            0      0.00%     79.97% # Class of committed instruction. (Count)
system.cpu.commitStats0.committedInstType::SimdDiv            0      0.00%     79.97% # Class of committed instruction. (Count)
system.cpu.commitStats0.committedInstType::SimdSqrt            0      0.00%     79.97% # Class of committed instruction. (Count)
system.cpu.commitStats0.committedInstType::SimdFloatAdd            0      0.00%     79.97% # Class of committed instruction. (Count)
system.cpu.commitStats0.committedInstType::SimdFloatAlu            0      0.00%     79.97% # Class of committed instruction. (Count)
system.cpu.commitStats0.committedInstType::SimdFloatCmp            0      0.00%     79.97% # Class of committed instruction. (Count)
system.cpu.commitStats0.committedInstType::SimdFloatCvt            0      0.00%     79.97% # Class of committed instruction. (Count)
system.cpu.commitStats0.committedInstType::SimdFloatDiv            0      0.00%     79.97% # Class of committed instruction. (Count)
system.cpu.commitStats0.committedInstType::SimdFloatMisc            0      0.00%     79.97% # Class of committed instruction. (Count)
system.cpu.commitStats0.committedInstType::SimdFloatMult            0      0.00%     79.97% # Class of committed instruction. (Count)
system.cpu.commitStats0.committedInstType::SimdFloatMultAcc            0      0.00%     79.97% # Class of committed instruction. (Count)
system.cpu.commitStats0.committedInstType::SimdFloatMatMultAcc            0      0.00%     79.97% # Class of committed instruction. (Count)
system.cpu.commitStats0.committedInstType::SimdFloatSqrt            0      0.00%     79.97% # Class of committed instruction. (Count)
system.cpu.commitStats0.committedInstType::SimdReduceAdd            0      0.00%     79.97% # Class of committed instruction. (Count)
system.cpu.commitStats0.committedInstType::SimdReduceAlu            0      0.00%     79.97% # Class of committed instruction. (Count)
system.cpu.commitStats0.committedInstType::SimdReduceCmp            0      0.00%     79.97% # Class of committed instruction. (Count)
system.cpu.commitStats0.committedInstType::SimdFloatReduceAdd            0      0.00%     79.97% # Class of committed instruction. (Count)
system.cpu.commitStats0.committedInstType::SimdFloatReduceCmp            0      0.00%     79.97% # Class of committed instruction. (Count)
system.cpu.commitStats0.committedInstType::SimdAes            0      0.00%     79.97% # Class of committed instruction. (Count)
system.cpu.commitStats0.committedInstType::SimdAesMix            0      0.00%     79.97% # Class of committed instruction. (Count)
system.cpu.commitStats0.committedInstType::SimdSha1Hash            0      0.00%     79.97% # Class of committed instruction. (Count)
system.cpu.commitStats0.committedInstType::SimdSha1Hash2            0      0.00%     79.97% # Class of committed instruction. (Count)
system.cpu.commitStats0.committedInstType::SimdSha256Hash            0      0.00%     79.97% # Class of committed instruction. (Count)
system.cpu.commitStats0.committedInstType::SimdSha256Hash2            0      0.00%     79.97% # Class of committed instruction. (Count)
system.cpu.commitStats0.committedInstType::SimdShaSigma2            0      0.00%     79.97% # Class of committed instruction. (Count)
system.cpu.commitStats0.committedInstType::SimdShaSigma3            0      0.00%     79.97% # Class of committed instruction. (Count)
system.cpu.commitStats0.committedInstType::SimdPredAlu            0      0.00%     79.97% # Class of committed instruction. (Count)
system.cpu.commitStats0.committedInstType::Matrix            0      0.00%     79.97% # Class of committed instruction. (Count)
system.cpu.commitStats0.committedInstType::MatrixMov            0      0.00%     79.97% # Class of committed instruction. (Count)
system.cpu.commitStats0.committedInstType::MatrixOP            0      0.00%     79.97% # Class of committed instruction. (Count)
system.cpu.commitStats0.committedInstType::MemRead      4212140     10.01%     89.98% # Class of committed instruction. (Count)
system.cpu.commitStats0.committedInstType::MemWrite      4215459     10.02%    100.00% # Class of committed instruction. (Count)
system.cpu.commitStats0.committedInstType::FloatMemRead            0      0.00%    100.00% # Class of committed instruction. (Count)
system.cpu.commitStats0.committedInstType::FloatMemWrite           12      0.00%    100.00% # Class of committed instruction. (Count)
system.cpu.commitStats0.committedInstType::IprAccess            0      0.00%    100.00% # Class of committed instruction. (Count)
system.cpu.commitStats0.committedInstType::InstPrefetch            0      0.00%    100.00% # Class of committed instruction. (Count)
system.cpu.commitStats0.committedInstType::SimdUnitStrideLoad            0      0.00%    100.00% # Class of committed instruction. (Count)
system.cpu.commitStats0.committedInstType::SimdUnitStrideStore            0      0.00%    100.00% # Class of committed instruction. (Count)
system.cpu.commitStats0.committedInstType::SimdUnitStrideMaskLoad            0      0.00%    100.00% # Class of committed instruction. (Count)
system.cpu.commitStats0.committedInstType::SimdUnitStrideMaskStore            0      0.00%    100.00% # Class of committed instruction. (Count)
system.cpu.commitStats0.committedInstType::SimdStridedLoad            0      0.00%    100.00% # Class of committed instruction. (Count)
system.cpu.commitStats0.committedInstType::SimdStridedStore            0      0.00%    100.00% # Class of committed instruction. (Count)
system.cpu.commitStats0.committedInstType::SimdIndexedLoad            0      0.00%    100.00% # Class of committed instruction. (Count)
system.cpu.commitStats0.committedInstType::SimdIndexedStore            0      0.00%    100.00% # Class of committed instruction. (Count)
system.cpu.commitStats0.committedInstType::SimdWholeRegisterLoad            0      0.00%    100.00% # Class of committed instruction. (Count)
system.cpu.commitStats0.committedInstType::SimdWholeRegisterStore            0      0.00%    100.00% # Class of committed instruction. (Count)
system.cpu.commitStats0.committedInstType::SimdUnitStrideFaultOnlyFirstLoad            0      0.00%    100.00% # Class of committed instruction. (Count)
system.cpu.commitStats0.committedInstType::SimdUnitStrideSegmentedLoad            0      0.00%    100.00% # Class of committed instruction. (Count)
system.cpu.commitStats0.committedInstType::SimdUnitStrideSegmentedStore            0      0.00%    100.00% # Class of committed instruction. (Count)
system.cpu.commitStats0.committedInstType::SimdExt            0      0.00%    100.00% # Class of committed instruction. (Count)
system.cpu.commitStats0.committedInstType::SimdFloatExt            0      0.00%    100.00% # Class of committed instruction. (Count)
system.cpu.commitStats0.committedInstType::SimdConfig            0      0.00%    100.00% # Class of committed instruction. (Count)
system.cpu.commitStats0.committedInstType::total     42081975                       # Class of committed instruction. (Count)
system.cpu.commitStats0.committedControl::IsControl      8419831                       # Class of control type instructions committed (Count)
system.cpu.commitStats0.committedControl::IsDirectControl      8415833                       # Class of control type instructions committed (Count)
system.cpu.commitStats0.committedControl::IsIndirectControl         3998                       # Class of control type instructions committed (Count)
system.cpu.commitStats0.committedControl::IsCondControl      8410879                       # Class of control type instructions committed (Count)
system.cpu.commitStats0.committedControl::IsUncondControl         8952                       # Class of control type instructions committed (Count)
system.cpu.commitStats0.committedControl::IsCall         2096                       # Class of control type instructions committed (Count)
system.cpu.commitStats0.committedControl::IsReturn         2091                       # Class of control type instructions committed (Count)
system.cpu.dcache.demandHits::cpu.data          21626                       # number of demand (read+write) hits (Count)
system.cpu.dcache.demandHits::total             21626                       # number of demand (read+write) hits (Count)
system.cpu.dcache.overallHits::cpu.data         21626                       # number of overall hits (Count)
system.cpu.dcache.overallHits::total            21626                       # number of overall hits (Count)
system.cpu.dcache.demandMisses::cpu.data      8389558                       # number of demand (read+write) misses (Count)
system.cpu.dcache.demandMisses::total         8389558                       # number of demand (read+write) misses (Count)
system.cpu.dcache.overallMisses::cpu.data      8389558                       # number of overall misses (Count)
system.cpu.dcache.overallMisses::total        8389558                       # number of overall misses (Count)
system.cpu.dcache.demandMissLatency::cpu.data 1065699666000                       # number of demand (read+write) miss ticks (Tick)
system.cpu.dcache.demandMissLatency::total 1065699666000                       # number of demand (read+write) miss ticks (Tick)
system.cpu.dcache.overallMissLatency::cpu.data 1065699666000                       # number of overall miss ticks (Tick)
system.cpu.dcache.overallMissLatency::total 1065699666000                       # number of overall miss ticks (Tick)
system.cpu.dcache.demandAccesses::cpu.data      8411184                       # number of demand (read+write) accesses (Count)
system.cpu.dcache.demandAccesses::total       8411184                       # number of demand (read+write) accesses (Count)
system.cpu.dcache.overallAccesses::cpu.data      8411184                       # number of overall (read+write) accesses (Count)
system.cpu.dcache.overallAccesses::total      8411184                       # number of overall (read+write) accesses (Count)
system.cpu.dcache.demandMissRate::cpu.data     0.997429                       # miss rate for demand accesses (Ratio)
system.cpu.dcache.demandMissRate::total      0.997429                       # miss rate for demand accesses (Ratio)
system.cpu.dcache.overallMissRate::cpu.data     0.997429                       # miss rate for overall accesses (Ratio)
system.cpu.dcache.overallMissRate::total     0.997429                       # miss rate for overall accesses (Ratio)
system.cpu.dcache.demandAvgMissLatency::cpu.data 127026.914410                       # average overall miss latency in ticks ((Tick/Count))
system.cpu.dcache.demandAvgMissLatency::total 127026.914410                       # average overall miss latency in ticks ((Tick/Count))
system.cpu.dcache.overallAvgMissLatency::cpu.data 127026.914410                       # average overall miss latency ((Tick/Count))
system.cpu.dcache.overallAvgMissLatency::total 127026.914410                       # average overall miss latency ((Tick/Count))
system.cpu.dcache.blockedCycles::no_mshrs            0                       # number of cycles access was blocked (Cycle)
system.cpu.dcache.blockedCycles::no_targets            0                       # number of cycles access was blocked (Cycle)
system.cpu.dcache.blockedCauses::no_mshrs            0                       # number of times access was blocked (Count)
system.cpu.dcache.blockedCauses::no_targets            0                       # number of times access was blocked (Count)
system.cpu.dcache.avgBlocked::no_mshrs            nan                       # average number of cycles each access was blocked ((Cycle/Count))
system.cpu.dcache.avgBlocked::no_targets          nan                       # average number of cycles each access was blocked ((Cycle/Count))
system.cpu.dcache.writebacks::writebacks      4194474                       # number of writebacks (Count)
system.cpu.dcache.writebacks::total           4194474                       # number of writebacks (Count)
system.cpu.dcache.demandMshrMisses::cpu.data      8389558                       # number of demand (read+write) MSHR misses (Count)
system.cpu.dcache.demandMshrMisses::total      8389558                       # number of demand (read+write) MSHR misses (Count)
system.cpu.dcache.overallMshrMisses::cpu.data      8389558                       # number of overall MSHR misses (Count)
system.cpu.dcache.overallMshrMisses::total      8389558                       # number of overall MSHR misses (Count)
system.cpu.dcache.demandMshrMissLatency::cpu.data 1032141434000                       # number of demand (read+write) MSHR miss ticks (Tick)
system.cpu.dcache.demandMshrMissLatency::total 1032141434000                       # number of demand (read+write) MSHR miss ticks (Tick)
system.cpu.dcache.overallMshrMissLatency::cpu.data 1032141434000                       # number of overall MSHR miss ticks (Tick)
system.cpu.dcache.overallMshrMissLatency::total 1032141434000                       # number of overall MSHR miss ticks (Tick)
system.cpu.dcache.demandMshrMissRate::cpu.data     0.997429                       # mshr miss ratio for demand accesses (Ratio)
system.cpu.dcache.demandMshrMissRate::total     0.997429                       # mshr miss ratio for demand accesses (Ratio)
system.cpu.dcache.overallMshrMissRate::cpu.data     0.997429                       # mshr miss ratio for overall accesses (Ratio)
system.cpu.dcache.overallMshrMissRate::total     0.997429                       # mshr miss ratio for overall accesses (Ratio)
system.cpu.dcache.demandAvgMshrMissLatency::cpu.data 123026.914410                       # average overall mshr miss latency ((Tick/Count))
system.cpu.dcache.demandAvgMshrMissLatency::total 123026.914410                       # average overall mshr miss latency ((Tick/Count))
system.cpu.dcache.overallAvgMshrMissLatency::cpu.data 123026.914410                       # average overall mshr miss latency ((Tick/Count))
system.cpu.dcache.overallAvgMshrMissLatency::total 123026.914410                       # average overall mshr miss latency ((Tick/Count))
system.cpu.dcache.replacements                8389049                       # number of replacements (Count)
system.cpu.dcache.LoadLockedReq.hits::cpu.data           10                       # number of LoadLockedReq hits (Count)
system.cpu.dcache.LoadLockedReq.hits::total           10                       # number of LoadLockedReq hits (Count)
system.cpu.dcache.LoadLockedReq.misses::cpu.data            1                       # number of LoadLockedReq misses (Count)
system.cpu.dcache.LoadLockedReq.misses::total            1                       # number of LoadLockedReq misses (Count)
system.cpu.dcache.LoadLockedReq.missLatency::cpu.data       119000                       # number of LoadLockedReq miss ticks (Tick)
system.cpu.dcache.LoadLockedReq.missLatency::total       119000                       # number of LoadLockedReq miss ticks (Tick)
system.cpu.dcache.LoadLockedReq.accesses::cpu.data           11                       # number of LoadLockedReq accesses(hits+misses) (Count)
system.cpu.dcache.LoadLockedReq.accesses::total           11                       # number of LoadLockedReq accesses(hits+misses) (Count)
system.cpu.dcache.LoadLockedReq.missRate::cpu.data     0.090909                       # miss rate for LoadLockedReq accesses (Ratio)
system.cpu.dcache.LoadLockedReq.missRate::total     0.090909                       # miss rate for LoadLockedReq accesses (Ratio)
system.cpu.dcache.LoadLockedReq.avgMissLatency::cpu.data       119000                       # average LoadLockedReq miss latency ((Tick/Count))
system.cpu.dcache.LoadLockedReq.avgMissLatency::total       119000                       # average LoadLockedReq miss latency ((Tick/Count))
system.cpu.dcache.LoadLockedReq.mshrMisses::cpu.data            1                       # number of LoadLockedReq MSHR misses (Count)
system.cpu.dcache.LoadLockedReq.mshrMisses::total            1                       # number of LoadLockedReq MSHR misses (Count)
system.cpu.dcache.LoadLockedReq.mshrMissLatency::cpu.data       115000                       # number of LoadLockedReq MSHR miss ticks (Tick)
system.cpu.dcache.LoadLockedReq.mshrMissLatency::total       115000                       # number of LoadLockedReq MSHR miss ticks (Tick)
system.cpu.dcache.LoadLockedReq.mshrMissRate::cpu.data     0.090909                       # mshr miss rate for LoadLockedReq accesses (Ratio)
system.cpu.dcache.LoadLockedReq.mshrMissRate::total     0.090909                       # mshr miss rate for LoadLockedReq accesses (Ratio)
system.cpu.dcache.LoadLockedReq.avgMshrMissLatency::cpu.data       115000                       # average LoadLockedReq mshr miss latency ((Tick/Count))
system.cpu.dcache.LoadLockedReq.avgMshrMissLatency::total       115000                       # average LoadLockedReq mshr miss latency ((Tick/Count))
system.cpu.dcache.ReadReq.hits::cpu.data        17026                       # number of ReadReq hits (Count)
system.cpu.dcache.ReadReq.hits::total           17026                       # number of ReadReq hits (Count)
system.cpu.dcache.ReadReq.misses::cpu.data      4195085                       # number of ReadReq misses (Count)
system.cpu.dcache.ReadReq.misses::total       4195085                       # number of ReadReq misses (Count)
system.cpu.dcache.ReadReq.missLatency::cpu.data 523697469000                       # number of ReadReq miss ticks (Tick)
system.cpu.dcache.ReadReq.missLatency::total 523697469000                       # number of ReadReq miss ticks (Tick)
system.cpu.dcache.ReadReq.accesses::cpu.data      4212111                       # number of ReadReq accesses(hits+misses) (Count)
system.cpu.dcache.ReadReq.accesses::total      4212111                       # number of ReadReq accesses(hits+misses) (Count)
system.cpu.dcache.ReadReq.missRate::cpu.data     0.995958                       # miss rate for ReadReq accesses (Ratio)
system.cpu.dcache.ReadReq.missRate::total     0.995958                       # miss rate for ReadReq accesses (Ratio)
system.cpu.dcache.ReadReq.avgMissLatency::cpu.data 124835.961369                       # average ReadReq miss latency ((Tick/Count))
system.cpu.dcache.ReadReq.avgMissLatency::total 124835.961369                       # average ReadReq miss latency ((Tick/Count))
system.cpu.dcache.ReadReq.mshrMisses::cpu.data      4195085                       # number of ReadReq MSHR misses (Count)
system.cpu.dcache.ReadReq.mshrMisses::total      4195085                       # number of ReadReq MSHR misses (Count)
system.cpu.dcache.ReadReq.mshrMissLatency::cpu.data 506917129000                       # number of ReadReq MSHR miss ticks (Tick)
system.cpu.dcache.ReadReq.mshrMissLatency::total 506917129000                       # number of ReadReq MSHR miss ticks (Tick)
system.cpu.dcache.ReadReq.mshrMissRate::cpu.data     0.995958                       # mshr miss rate for ReadReq accesses (Ratio)
system.cpu.dcache.ReadReq.mshrMissRate::total     0.995958                       # mshr miss rate for ReadReq accesses (Ratio)
system.cpu.dcache.ReadReq.avgMshrMissLatency::cpu.data 120835.961369                       # average ReadReq mshr miss latency ((Tick/Count))
system.cpu.dcache.ReadReq.avgMshrMissLatency::total 120835.961369                       # average ReadReq mshr miss latency ((Tick/Count))
system.cpu.dcache.StoreCondReq.hits::cpu.data           11                       # number of StoreCondReq hits (Count)
system.cpu.dcache.StoreCondReq.hits::total           11                       # number of StoreCondReq hits (Count)
system.cpu.dcache.StoreCondReq.accesses::cpu.data           11                       # number of StoreCondReq accesses(hits+misses) (Count)
system.cpu.dcache.StoreCondReq.accesses::total           11                       # number of StoreCondReq accesses(hits+misses) (Count)
system.cpu.dcache.SwapReq.hits::cpu.data           16                       # number of SwapReq hits (Count)
system.cpu.dcache.SwapReq.hits::total              16                       # number of SwapReq hits (Count)
system.cpu.dcache.SwapReq.misses::cpu.data            2                       # number of SwapReq misses (Count)
system.cpu.dcache.SwapReq.misses::total             2                       # number of SwapReq misses (Count)
system.cpu.dcache.SwapReq.missLatency::cpu.data       252000                       # number of SwapReq miss ticks (Tick)
system.cpu.dcache.SwapReq.missLatency::total       252000                       # number of SwapReq miss ticks (Tick)
system.cpu.dcache.SwapReq.accesses::cpu.data           18                       # number of SwapReq accesses(hits+misses) (Count)
system.cpu.dcache.SwapReq.accesses::total           18                       # number of SwapReq accesses(hits+misses) (Count)
system.cpu.dcache.SwapReq.missRate::cpu.data     0.111111                       # miss rate for SwapReq accesses (Ratio)
system.cpu.dcache.SwapReq.missRate::total     0.111111                       # miss rate for SwapReq accesses (Ratio)
system.cpu.dcache.SwapReq.avgMissLatency::cpu.data       126000                       # average SwapReq miss latency ((Tick/Count))
system.cpu.dcache.SwapReq.avgMissLatency::total       126000                       # average SwapReq miss latency ((Tick/Count))
system.cpu.dcache.SwapReq.mshrMisses::cpu.data            2                       # number of SwapReq MSHR misses (Count)
system.cpu.dcache.SwapReq.mshrMisses::total            2                       # number of SwapReq MSHR misses (Count)
system.cpu.dcache.SwapReq.mshrMissLatency::cpu.data       244000                       # number of SwapReq MSHR miss ticks (Tick)
system.cpu.dcache.SwapReq.mshrMissLatency::total       244000                       # number of SwapReq MSHR miss ticks (Tick)
system.cpu.dcache.SwapReq.mshrMissRate::cpu.data     0.111111                       # mshr miss rate for SwapReq accesses (Ratio)
system.cpu.dcache.SwapReq.mshrMissRate::total     0.111111                       # mshr miss rate for SwapReq accesses (Ratio)
system.cpu.dcache.SwapReq.avgMshrMissLatency::cpu.data       122000                       # average SwapReq mshr miss latency ((Tick/Count))
system.cpu.dcache.SwapReq.avgMshrMissLatency::total       122000                       # average SwapReq mshr miss latency ((Tick/Count))
system.cpu.dcache.WriteReq.hits::cpu.data         4600                       # number of WriteReq hits (Count)
system.cpu.dcache.WriteReq.hits::total           4600                       # number of WriteReq hits (Count)
system.cpu.dcache.WriteReq.misses::cpu.data      4194473                       # number of WriteReq misses (Count)
system.cpu.dcache.WriteReq.misses::total      4194473                       # number of WriteReq misses (Count)
system.cpu.dcache.WriteReq.missLatency::cpu.data 542002197000                       # number of WriteReq miss ticks (Tick)
system.cpu.dcache.WriteReq.missLatency::total 542002197000                       # number of WriteReq miss ticks (Tick)
system.cpu.dcache.WriteReq.accesses::cpu.data      4199073                       # number of WriteReq accesses(hits+misses) (Count)
system.cpu.dcache.WriteReq.accesses::total      4199073                       # number of WriteReq accesses(hits+misses) (Count)
system.cpu.dcache.WriteReq.missRate::cpu.data     0.998905                       # miss rate for WriteReq accesses (Ratio)
system.cpu.dcache.WriteReq.missRate::total     0.998905                       # miss rate for WriteReq accesses (Ratio)
system.cpu.dcache.WriteReq.avgMissLatency::cpu.data 129218.187124                       # average WriteReq miss latency ((Tick/Count))
system.cpu.dcache.WriteReq.avgMissLatency::total 129218.187124                       # average WriteReq miss latency ((Tick/Count))
system.cpu.dcache.WriteReq.mshrMisses::cpu.data      4194473                       # number of WriteReq MSHR misses (Count)
system.cpu.dcache.WriteReq.mshrMisses::total      4194473                       # number of WriteReq MSHR misses (Count)
system.cpu.dcache.WriteReq.mshrMissLatency::cpu.data 525224305000                       # number of WriteReq MSHR miss ticks (Tick)
system.cpu.dcache.WriteReq.mshrMissLatency::total 525224305000                       # number of WriteReq MSHR miss ticks (Tick)
system.cpu.dcache.WriteReq.mshrMissRate::cpu.data     0.998905                       # mshr miss rate for WriteReq accesses (Ratio)
system.cpu.dcache.WriteReq.mshrMissRate::total     0.998905                       # mshr miss rate for WriteReq accesses (Ratio)
system.cpu.dcache.WriteReq.avgMshrMissLatency::cpu.data 125218.187124                       # average WriteReq mshr miss latency ((Tick/Count))
system.cpu.dcache.WriteReq.avgMshrMissLatency::total 125218.187124                       # average WriteReq mshr miss latency ((Tick/Count))
system.cpu.dcache.power_state.pwrStateResidencyTicks::UNDEFINED 1335029815000                       # Cumulative time (in ticks) in various power states (Tick)
system.cpu.dcache.tags.tagsInUse           511.909899                       # Average ticks per tags in use ((Tick/Count))
system.cpu.dcache.tags.totalRefs              8411224                       # Total number of references to valid blocks. (Count)
system.cpu.dcache.tags.sampledRefs            8389561                       # Sample count of references to valid blocks. (Count)
system.cpu.dcache.tags.avgRefs               1.002582                       # Average number of references to valid blocks. ((Count/Count))
system.cpu.dcache.tags.warmupTick              298000                       # The tick when the warmup percentage was hit. (Tick)
system.cpu.dcache.tags.occupancies::cpu.data   511.909899                       # Average occupied blocks per tick, per requestor ((Count/Tick))
system.cpu.dcache.tags.avgOccs::cpu.data     0.999824                       # Average percentage of cache occupancy ((Ratio/Tick))
system.cpu.dcache.tags.avgOccs::total        0.999824                       # Average percentage of cache occupancy ((Ratio/Tick))
system.cpu.dcache.tags.occupanciesTaskId::1024          512                       # Occupied blocks per task id (Count)
system.cpu.dcache.tags.ageTaskId_1024::0           13                       # Occupied blocks per task id, per block age (Count)
system.cpu.dcache.tags.ageTaskId_1024::1          334                       # Occupied blocks per task id, per block age (Count)
system.cpu.dcache.tags.ageTaskId_1024::2          165                       # Occupied blocks per task id, per block age (Count)
system.cpu.dcache.tags.ratioOccsTaskId::1024            1                       # Ratio of occupied blocks and all blocks, per task id (Ratio)
system.cpu.dcache.tags.tagAccesses           25212009                       # Number of tag accesses (Count)
system.cpu.dcache.tags.dataAccesses          25212009                       # Number of data accesses (Count)
system.cpu.dcache.tags.power_state.pwrStateResidencyTicks::UNDEFINED 1335029815000                       # Cumulative time (in ticks) in various power states (Tick)
system.cpu.exec_context.thread_0.numMatAluAccesses            0                       # Number of matrix alu accesses (Count)
system.cpu.exec_context.thread_0.numCallsReturns         4187                       # Number of times a function call or return occured (Count)
system.cpu.exec_context.thread_0.numMatInsts            0                       # Number of matrix instructions (Count)
system.cpu.exec_context.thread_0.numIdleCycles     0.001000                       # Number of idle cycles (Cycle)
system.cpu.exec_context.thread_0.numBusyCycles 1335029814.999000                       # Number of busy cycles (Cycle)
system.cpu.exec_context.thread_0.notIdleFraction     1.000000                       # Percentage of non-idle cycles (Ratio)
system.cpu.exec_context.thread_0.idleFraction     0.000000                       # Percentage of idle cycles (Ratio)
system.cpu.executeStats0.numInsts                   0                       # Number of executed instructions (Count)
system.cpu.executeStats0.numNop                     0                       # Number of nop insts executed (Count)
system.cpu.executeStats0.numBranches                0                       # Number of branches executed (Count)
system.cpu.executeStats0.numLoadInsts               0                       # Number of load instructions executed (Count)
system.cpu.executeStats0.numStoreInsts        8427611                       # Number of stores executed (Count)
system.cpu.executeStats0.instRate                   0                       # Inst execution rate ((Count/Cycle))
system.cpu.executeStats0.numFpAluAccesses           12                       # Number of float alu accesses (Count)
system.cpu.executeStats0.numFpRegReads             12                       # Number of times the floating registers were read (Count)
system.cpu.executeStats0.numFpRegWrites             0                       # Number of times the floating registers were written (Count)
system.cpu.executeStats0.numIntAluAccesses     42078955                       # Number of integer alu accesses (Count)
system.cpu.executeStats0.numIntRegReads      71474375                       # Number of times the integer registers were read (Count)
system.cpu.executeStats0.numIntRegWrites     29448672                       # Number of times the integer registers were written (Count)
system.cpu.executeStats0.numMemRefs           8427611                       # Number of memory refs (Count)
system.cpu.executeStats0.numMiscRegReads           30                       # Number of times the Misc registers were read (Count)
system.cpu.executeStats0.numVecAluAccesses            0                       # Number of vector alu accesses (Count)
system.cpu.executeStats0.numDiscardedOps            0                       # Number of ops (including micro ops) which were discarded before commit (Count)
system.cpu.fetchStats0.numInsts              42081927                       # Number of instructions fetched (thread level) (Count)
system.cpu.fetchStats0.numOps                42081975                       # Number of ops (including micro ops) fetched (thread level) (Count)
system.cpu.fetchStats0.fetchRate             0.031521                       # Number of inst fetches per cycle ((Count/Cycle))
system.cpu.fetchStats0.numBranches            8419831                       # Number of branches fetched (Count)
system.cpu.fetchStats0.branchRate            0.006307                       # Number of branch fetches per cycle (Ratio)
system.cpu.fetchStats0.numFetchSuspends             0                       # Number of times Execute suspended instruction fetching (Count)
system.cpu.icache.demandHits::cpu.inst       67297398                       # number of demand (read+write) hits (Count)
system.cpu.icache.demandHits::total          67297398                       # number of demand (read+write) hits (Count)
system.cpu.icache.overallHits::cpu.inst      67297398                       # number of overall hits (Count)
system.cpu.icache.overallHits::total         67297398                       # number of overall hits (Count)
system.cpu.icache.demandMisses::cpu.inst          436                       # number of demand (read+write) misses (Count)
system.cpu.icache.demandMisses::total             436                       # number of demand (read+write) misses (Count)
system.cpu.icache.overallMisses::cpu.inst          436                       # number of overall misses (Count)
system.cpu.icache.overallMisses::total            436                       # number of overall misses (Count)
system.cpu.icache.demandMissLatency::cpu.inst     53534000                       # number of demand (read+write) miss ticks (Tick)
system.cpu.icache.demandMissLatency::total     53534000                       # number of demand (read+write) miss ticks (Tick)
system.cpu.icache.overallMissLatency::cpu.inst     53534000                       # number of overall miss ticks (Tick)
system.cpu.icache.overallMissLatency::total     53534000                       # number of overall miss ticks (Tick)
system.cpu.icache.demandAccesses::cpu.inst     67297834                       # number of demand (read+write) accesses (Count)
system.cpu.icache.demandAccesses::total      67297834                       # number of demand (read+write) accesses (Count)
system.cpu.icache.overallAccesses::cpu.inst     67297834                       # number of overall (read+write) accesses (Count)
system.cpu.icache.overallAccesses::total     67297834                       # number of overall (read+write) accesses (Count)
system.cpu.icache.demandMissRate::cpu.inst     0.000006                       # miss rate for demand accesses (Ratio)
system.cpu.icache.demandMissRate::total      0.000006                       # miss rate for demand accesses (Ratio)
system.cpu.icache.overallMissRate::cpu.inst     0.000006                       # miss rate for overall accesses (Ratio)
system.cpu.icache.overallMissRate::total     0.000006                       # miss rate for overall accesses (Ratio)
system.cpu.icache.demandAvgMissLatency::cpu.inst 122784.403670                       # average overall miss latency in ticks ((Tick/Count))
system.cpu.icache.demandAvgMissLatency::total 122784.403670                       # average overall miss latency in ticks ((Tick/Count))
system.cpu.icache.overallAvgMissLatency::cpu.inst 122784.403670                       # average overall miss latency ((Tick/Count))
system.cpu.icache.overallAvgMissLatency::total 122784.403670                       # average overall miss latency ((Tick/Count))
system.cpu.icache.blockedCycles::no_mshrs            0                       # number of cycles access was blocked (Cycle)
system.cpu.icache.blockedCycles::no_targets            0                       # number of cycles access was blocked (Cycle)
system.cpu.icache.blockedCauses::no_mshrs            0                       # number of times access was blocked (Count)
system.cpu.icache.blockedCauses::no_targets            0                       # number of times access was blocked (Count)
system.cpu.icache.avgBlocked::no_mshrs            nan                       # average number of cycles each access was blocked ((Cycle/Count))
system.cpu.icache.avgBlocked::no_targets          nan                       # average number of cycles each access was blocked ((Cycle/Count))
system.cpu.icache.writebacks::writebacks           89                       # number of writebacks (Count)
system.cpu.icache.writebacks::total                89                       # number of writebacks (Count)
system.cpu.icache.demandMshrMisses::cpu.inst          436                       # number of demand (read+write) MSHR misses (Count)
system.cpu.icache.demandMshrMisses::total          436                       # number of demand (read+write) MSHR misses (Count)
system.cpu.icache.overallMshrMisses::cpu.inst          436                       # number of overall MSHR misses (Count)
system.cpu.icache.overallMshrMisses::total          436                       # number of overall MSHR misses (Count)
system.cpu.icache.demandMshrMissLatency::cpu.inst     51790000                       # number of demand (read+write) MSHR miss ticks (Tick)
system.cpu.icache.demandMshrMissLatency::total     51790000                       # number of demand (read+write) MSHR miss ticks (Tick)
system.cpu.icache.overallMshrMissLatency::cpu.inst     51790000                       # number of overall MSHR miss ticks (Tick)
system.cpu.icache.overallMshrMissLatency::total     51790000                       # number of overall MSHR miss ticks (Tick)
system.cpu.icache.demandMshrMissRate::cpu.inst     0.000006                       # mshr miss ratio for demand accesses (Ratio)
system.cpu.icache.demandMshrMissRate::total     0.000006                       # mshr miss ratio for demand accesses (Ratio)
system.cpu.icache.overallMshrMissRate::cpu.inst     0.000006                       # mshr miss ratio for overall accesses (Ratio)
system.cpu.icache.overallMshrMissRate::total     0.000006                       # mshr miss ratio for overall accesses (Ratio)
system.cpu.icache.demandAvgMshrMissLatency::cpu.inst 118784.403670                       # average overall mshr miss latency ((Tick/Count))
system.cpu.icache.demandAvgMshrMissLatency::total 118784.403670                       # average overall mshr miss latency ((Tick/Count))
system.cpu.icache.overallAvgMshrMissLatency::cpu.inst 118784.403670                       # average overall mshr miss latency ((Tick/Count))
system.cpu.icache.overallAvgMshrMissLatency::total 118784.403670                       # average overall mshr miss latency ((Tick/Count))
system.cpu.icache.replacements                     89                       # number of replacements (Count)
system.cpu.icache.ReadReq.hits::cpu.inst     67297398                       # number of ReadReq hits (Count)
system.cpu.icache.ReadReq.hits::total        67297398                       # number of ReadReq hits (Count)
system.cpu.icache.ReadReq.misses::cpu.inst          436                       # number of ReadReq misses (Count)
system.cpu.icache.ReadReq.misses::total           436                       # number of ReadReq misses (Count)
system.cpu.icache.ReadReq.missLatency::cpu.inst     53534000                       # number of ReadReq miss ticks (Tick)
system.cpu.icache.ReadReq.missLatency::total     53534000                       # number of ReadReq miss ticks (Tick)
system.cpu.icache.ReadReq.accesses::cpu.inst     67297834                       # number of ReadReq accesses(hits+misses) (Count)
system.cpu.icache.ReadReq.accesses::total     67297834                       # number of ReadReq accesses(hits+misses) (Count)
system.cpu.icache.ReadReq.missRate::cpu.inst     0.000006                       # miss rate for ReadReq accesses (Ratio)
system.cpu.icache.ReadReq.missRate::total     0.000006                       # miss rate for ReadReq accesses (Ratio)
system.cpu.icache.ReadReq.avgMissLatency::cpu.inst 122784.403670                       # average ReadReq miss latency ((Tick/Count))
system.cpu.icache.ReadReq.avgMissLatency::total 122784.403670                       # average ReadReq miss latency ((Tick/Count))
system.cpu.icache.ReadReq.mshrMisses::cpu.inst          436                       # number of ReadReq MSHR misses (Count)
system.cpu.icache.ReadReq.mshrMisses::total          436                       # number of ReadReq MSHR misses (Count)
system.cpu.icache.ReadReq.mshrMissLatency::cpu.inst     51790000                       # number of ReadReq MSHR miss ticks (Tick)
system.cpu.icache.ReadReq.mshrMissLatency::total     51790000                       # number of ReadReq MSHR miss ticks (Tick)
system.cpu.icache.ReadReq.mshrMissRate::cpu.inst     0.000006                       # mshr miss rate for ReadReq accesses (Ratio)
system.cpu.icache.ReadReq.mshrMissRate::total     0.000006                       # mshr miss rate for ReadReq accesses (Ratio)
system.cpu.icache.ReadReq.avgMshrMissLatency::cpu.inst 118784.403670                       # average ReadReq mshr miss latency ((Tick/Count))
system.cpu.icache.ReadReq.avgMshrMissLatency::total 118784.403670                       # average ReadReq mshr miss latency ((Tick/Count))
system.cpu.icache.power_state.pwrStateResidencyTicks::UNDEFINED 1335029815000                       # Cumulative time (in ticks) in various power states (Tick)
system.cpu.icache.tags.tagsInUse           250.977349                       # Average ticks per tags in use ((Tick/Count))
system.cpu.icache.tags.totalRefs             67297834                       # Total number of references to valid blocks. (Count)
system.cpu.icache.tags.sampledRefs                436                       # Sample count of references to valid blocks. (Count)
system.cpu.icache.tags.avgRefs           154352.830275                       # Average number of references to valid blocks. ((Count/Count))
system.cpu.icache.tags.warmupTick              129000                       # The tick when the warmup percentage was hit. (Tick)
system.cpu.icache.tags.occupancies::cpu.inst   250.977349                       # Average occupied blocks per tick, per requestor ((Count/Tick))
system.cpu.icache.tags.avgOccs::cpu.inst     0.490190                       # Average percentage of cache occupancy ((Ratio/Tick))
system.cpu.icache.tags.avgOccs::total        0.490190                       # Average percentage of cache occupancy ((Ratio/Tick))
system.cpu.icache.tags.occupanciesTaskId::1024          347                       # Occupied blocks per task id (Count)
system.cpu.icache.tags.ageTaskId_1024::0           35                       # Occupied blocks per task id, per block age (Count)
system.cpu.icache.tags.ageTaskId_1024::1          103                       # Occupied blocks per task id, per block age (Count)
system.cpu.icache.tags.ageTaskId_1024::4          209                       # Occupied blocks per task id, per block age (Count)
system.cpu.icache.tags.ratioOccsTaskId::1024     0.677734                       # Ratio of occupied blocks and all blocks, per task id (Ratio)
system.cpu.icache.tags.tagAccesses          134596104                       # Number of tag accesses (Count)
system.cpu.icache.tags.dataAccesses         134596104                       # Number of data accesses (Count)
system.cpu.icache.tags.power_state.pwrStateResidencyTicks::UNDEFINED 1335029815000                       # Cumulative time (in ticks) in various power states (Tick)
system.cpu.mmu.dtb.readHits                         0                       # read hits (Count)
system.cpu.mmu.dtb.readMisses                       0                       # read misses (Count)
system.cpu.mmu.dtb.readAccesses                     0                       # read accesses (Count)
system.cpu.mmu.dtb.writeHits                        0                       # write hits (Count)
system.cpu.mmu.dtb.writeMisses                      0                       # write misses (Count)
system.cpu.mmu.dtb.writeAccesses                    0                       # write accesses (Count)
system.cpu.mmu.dtb.hits                             0                       # Total TLB (read and write) hits (Count)
system.cpu.mmu.dtb.misses                           0                       # Total TLB (read and write) misses (Count)
system.cpu.mmu.dtb.accesses                         0                       # Total TLB (read and write) accesses (Count)
system.cpu.mmu.dtb.walker.num_4kb_walks             0                       # Completed page walks with 4KB pages (Count)
system.cpu.mmu.dtb.walker.num_2mb_walks             0                       # Completed page walks with 2MB pages (Count)
system.cpu.mmu.dtb.walker.power_state.pwrStateResidencyTicks::UNDEFINED 1335029815000                       # Cumulative time (in ticks) in various power states (Tick)
system.cpu.mmu.itb.readHits                         0                       # read hits (Count)
system.cpu.mmu.itb.readMisses                       0                       # read misses (Count)
system.cpu.mmu.itb.readAccesses                     0                       # read accesses (Count)
system.cpu.mmu.itb.writeHits                        0                       # write hits (Count)
system.cpu.mmu.itb.writeMisses                      0                       # write misses (Count)
system.cpu.mmu.itb.writeAccesses                    0                       # write accesses (Count)
system.cpu.mmu.itb.hits                             0                       # Total TLB (read and write) hits (Count)
system.cpu.mmu.itb.misses                           0                       # Total TLB (read and write) misses (Count)
system.cpu.mmu.itb.accesses                         0                       # Total TLB (read and write) accesses (Count)
system.cpu.mmu.itb.walker.num_4kb_walks             0                       # Completed page walks with 4KB pages (Count)
system.cpu.mmu.itb.walker.num_2mb_walks             0                       # Completed page walks with 2MB pages (Count)
system.cpu.mmu.itb.walker.power_state.pwrStateResidencyTicks::UNDEFINED 1335029815000                       # Cumulative time (in ticks) in various power states (Tick)
system.cpu.power_state.pwrStateResidencyTicks::ON 1335029815000                       # Cumulative time (in ticks) in various power states (Tick)
system.cpu.thread_0.numInsts                        0                       # Number of Instructions committed (Count)
system.cpu.thread_0.numOps                          0                       # Number of Ops committed (Count)
system.cpu.thread_0.numMemRefs                      0                       # Number of Memory References (Count)
system.cpu.workload.numSyscalls                    18                       # Number of system calls (Count)
system.l2.demandHits::cpu.inst                     14                       # number of demand (read+write) hits (Count)
system.l2.demandHits::cpu.data                     26                       # number of demand (read+write) hits (Count)
system.l2.demandHits::total                        40                       # number of demand (read+write) hits (Count)
system.l2.overallHits::cpu.inst                    14                       # number of overall hits (Count)
system.l2.overallHits::cpu.data                    26                       # number of overall hits (Count)
system.l2.overallHits::total                       40                       # number of overall hits (Count)
system.l2.demandMisses::cpu.inst                  422                       # number of demand (read+write) misses (Count)
system.l2.demandMisses::cpu.data              8389535                       # number of demand (read+write) misses (Count)
system.l2.demandMisses::total                 8389957                       # number of demand (read+write) misses (Count)
system.l2.overallMisses::cpu.inst                 422                       # number of overall misses (Count)
system.l2.overallMisses::cpu.data             8389535                       # number of overall misses (Count)
system.l2.overallMisses::total                8389957                       # number of overall misses (Count)
system.l2.demandMissLatency::cpu.inst        49396000                       # number of demand (read+write) miss ticks (Tick)
system.l2.demandMissLatency::cpu.data    990193598000                       # number of demand (read+write) miss ticks (Tick)
system.l2.demandMissLatency::total       990242994000                       # number of demand (read+write) miss ticks (Tick)
system.l2.overallMissLatency::cpu.inst       49396000                       # number of overall miss ticks (Tick)
system.l2.overallMissLatency::cpu.data   990193598000                       # number of overall miss ticks (Tick)
system.l2.overallMissLatency::total      990242994000                       # number of overall miss ticks (Tick)
system.l2.demandAccesses::cpu.inst                436                       # number of demand (read+write) accesses (Count)
system.l2.demandAccesses::cpu.data            8389561                       # number of demand (read+write) accesses (Count)
system.l2.demandAccesses::total               8389997                       # number of demand (read+write) accesses (Count)
system.l2.overallAccesses::cpu.inst               436                       # number of overall (read+write) accesses (Count)
system.l2.overallAccesses::cpu.data           8389561                       # number of overall (read+write) accesses (Count)
system.l2.overallAccesses::total              8389997                       # number of overall (read+write) accesses (Count)
system.l2.demandMissRate::cpu.inst           0.967890                       # miss rate for demand accesses (Ratio)
system.l2.demandMissRate::cpu.data           0.999997                       # miss rate for demand accesses (Ratio)
system.l2.demandMissRate::total              0.999995                       # miss rate for demand accesses (Ratio)
system.l2.overallMissRate::cpu.inst          0.967890                       # miss rate for overall accesses (Ratio)
system.l2.overallMissRate::cpu.data          0.999997                       # miss rate for overall accesses (Ratio)
system.l2.overallMissRate::total             0.999995                       # miss rate for overall accesses (Ratio)
system.l2.demandAvgMissLatency::cpu.inst 117052.132701                       # average overall miss latency in ticks ((Tick/Count))
system.l2.demandAvgMissLatency::cpu.data 118027.232499                       # average overall miss latency in ticks ((Tick/Count))
system.l2.demandAvgMissLatency::total    118027.183453                       # average overall miss latency in ticks ((Tick/Count))
system.l2.overallAvgMissLatency::cpu.inst 117052.132701                       # average overall miss latency ((Tick/Count))
system.l2.overallAvgMissLatency::cpu.data 118027.232499                       # average overall miss latency ((Tick/Count))
system.l2.overallAvgMissLatency::total   118027.183453                       # average overall miss latency ((Tick/Count))
system.l2.blockedCycles::no_mshrs                   0                       # number of cycles access was blocked (Cycle)
system.l2.blockedCycles::no_targets                 0                       # number of cycles access was blocked (Cycle)
system.l2.blockedCauses::no_mshrs                   0                       # number of times access was blocked (Count)
system.l2.blockedCauses::no_targets                 0                       # number of times access was blocked (Count)
system.l2.avgBlocked::no_mshrs                    nan                       # average number of cycles each access was blocked ((Cycle/Count))
system.l2.avgBlocked::no_targets                  nan                       # average number of cycles each access was blocked ((Cycle/Count))
system.l2.writebacks::writebacks              4194455                       # number of writebacks (Count)
system.l2.writebacks::total                   4194455                       # number of writebacks (Count)
system.l2.demandMshrMisses::cpu.inst              422                       # number of demand (read+write) MSHR misses (Count)
system.l2.demandMshrMisses::cpu.data          8389535                       # number of demand (read+write) MSHR misses (Count)
system.l2.demandMshrMisses::total             8389957                       # number of demand (read+write) MSHR misses (Count)
system.l2.overallMshrMisses::cpu.inst             422                       # number of overall MSHR misses (Count)
system.l2.overallMshrMisses::cpu.data         8389535                       # number of overall MSHR misses (Count)
system.l2.overallMshrMisses::total            8389957                       # number of overall MSHR misses (Count)
system.l2.demandMshrMissLatency::cpu.inst     43488000                       # number of demand (read+write) MSHR miss ticks (Tick)
system.l2.demandMshrMissLatency::cpu.data 872740108000                       # number of demand (read+write) MSHR miss ticks (Tick)
system.l2.demandMshrMissLatency::total   872783596000                       # number of demand (read+write) MSHR miss ticks (Tick)
system.l2.overallMshrMissLatency::cpu.inst     43488000                       # number of overall MSHR miss ticks (Tick)
system.l2.overallMshrMissLatency::cpu.data 872740108000                       # number of overall MSHR miss ticks (Tick)
system.l2.overallMshrMissLatency::total  872783596000                       # number of overall MSHR miss ticks (Tick)
system.l2.demandMshrMissRate::cpu.inst       0.967890                       # mshr miss ratio for demand accesses (Ratio)
system.l2.demandMshrMissRate::cpu.data       0.999997                       # mshr miss ratio for demand accesses (Ratio)
system.l2.demandMshrMissRate::total          0.999995                       # mshr miss ratio for demand accesses (Ratio)
system.l2.overallMshrMissRate::cpu.inst      0.967890                       # mshr miss ratio for overall accesses (Ratio)
system.l2.overallMshrMissRate::cpu.data      0.999997                       # mshr miss ratio for overall accesses (Ratio)
system.l2.overallMshrMissRate::total         0.999995                       # mshr miss ratio for overall accesses (Ratio)
system.l2.demandAvgMshrMissLatency::cpu.inst 103052.132701                       # average overall mshr miss latency ((Tick/Count))
system.l2.demandAvgMshrMissLatency::cpu.data 104027.232499                       # average overall mshr miss latency ((Tick/Count))
system.l2.demandAvgMshrMissLatency::total 104027.183453                       # average overall mshr miss latency ((Tick/Count))
system.l2.overallAvgMshrMissLatency::cpu.inst 103052.132701                       # average overall mshr miss latency ((Tick/Count))
system.l2.overallAvgMshrMissLatency::cpu.data 104027.232499                       # average overall mshr miss latency ((Tick/Count))
system.l2.overallAvgMshrMissLatency::total 104027.183453                       # average overall mshr miss latency ((Tick/Count))
system.l2.replacements                        8385903                       # number of replacements (Count)
system.l2.ReadCleanReq.hits::cpu.inst              14                       # number of ReadCleanReq hits (Count)
system.l2.ReadCleanReq.hits::total                 14                       # number of ReadCleanReq hits (Count)
system.l2.ReadCleanReq.misses::cpu.inst           422                       # number of ReadCleanReq misses (Count)
system.l2.ReadCleanReq.misses::total              422                       # number of ReadCleanReq misses (Count)
system.l2.ReadCleanReq.missLatency::cpu.inst     49396000                       # number of ReadCleanReq miss ticks (Tick)
system.l2.ReadCleanReq.missLatency::total     49396000                       # number of ReadCleanReq miss ticks (Tick)
system.l2.ReadCleanReq.accesses::cpu.inst          436                       # number of ReadCleanReq accesses(hits+misses) (Count)
system.l2.ReadCleanReq.accesses::total            436                       # number of ReadCleanReq accesses(hits+misses) (Count)
system.l2.ReadCleanReq.missRate::cpu.inst     0.967890                       # miss rate for ReadCleanReq accesses (Ratio)
system.l2.ReadCleanReq.missRate::total       0.967890                       # miss rate for ReadCleanReq accesses (Ratio)
system.l2.ReadCleanReq.avgMissLatency::cpu.inst 117052.132701                       # average ReadCleanReq miss latency ((Tick/Count))
system.l2.ReadCleanReq.avgMissLatency::total 117052.132701                       # average ReadCleanReq miss latency ((Tick/Count))
system.l2.ReadCleanReq.mshrMisses::cpu.inst          422                       # number of ReadCleanReq MSHR misses (Count)
system.l2.ReadCleanReq.mshrMisses::total          422                       # number of ReadCleanReq MSHR misses (Count)
system.l2.ReadCleanReq.mshrMissLatency::cpu.inst     43488000                       # number of ReadCleanReq MSHR miss ticks (Tick)
system.l2.ReadCleanReq.mshrMissLatency::total     43488000                       # number of ReadCleanReq MSHR miss ticks (Tick)
system.l2.ReadCleanReq.mshrMissRate::cpu.inst     0.967890                       # mshr miss rate for ReadCleanReq accesses (Ratio)
system.l2.ReadCleanReq.mshrMissRate::total     0.967890                       # mshr miss rate for ReadCleanReq accesses (Ratio)
system.l2.ReadCleanReq.avgMshrMissLatency::cpu.inst 103052.132701                       # average ReadCleanReq mshr miss latency ((Tick/Count))
system.l2.ReadCleanReq.avgMshrMissLatency::total 103052.132701                       # average ReadCleanReq mshr miss latency ((Tick/Count))
system.l2.ReadExReq.hits::cpu.data                  2                       # number of ReadExReq hits (Count)
system.l2.ReadExReq.hits::total                     2                       # number of ReadExReq hits (Count)
system.l2.ReadExReq.misses::cpu.data          4194473                       # number of ReadExReq misses (Count)
system.l2.ReadExReq.misses::total             4194473                       # number of ReadExReq misses (Count)
system.l2.ReadExReq.missLatency::cpu.data 504252144000                       # number of ReadExReq miss ticks (Tick)
system.l2.ReadExReq.missLatency::total   504252144000                       # number of ReadExReq miss ticks (Tick)
system.l2.ReadExReq.accesses::cpu.data        4194475                       # number of ReadExReq accesses(hits+misses) (Count)
system.l2.ReadExReq.accesses::total           4194475                       # number of ReadExReq accesses(hits+misses) (Count)
system.l2.ReadExReq.missRate::cpu.data       1.000000                       # miss rate for ReadExReq accesses (Ratio)
system.l2.ReadExReq.missRate::total          1.000000                       # miss rate for ReadExReq accesses (Ratio)
system.l2.ReadExReq.avgMissLatency::cpu.data 120218.235759                       # average ReadExReq miss latency ((Tick/Count))
system.l2.ReadExReq.avgMissLatency::total 120218.235759                       # average ReadExReq miss latency ((Tick/Count))
system.l2.ReadExReq.mshrMisses::cpu.data      4194473                       # number of ReadExReq MSHR misses (Count)
system.l2.ReadExReq.mshrMisses::total         4194473                       # number of ReadExReq MSHR misses (Count)
system.l2.ReadExReq.mshrMissLatency::cpu.data 445529522000                       # number of ReadExReq MSHR miss ticks (Tick)
system.l2.ReadExReq.mshrMissLatency::total 445529522000                       # number of ReadExReq MSHR miss ticks (Tick)
system.l2.ReadExReq.mshrMissRate::cpu.data     1.000000                       # mshr miss rate for ReadExReq accesses (Ratio)
system.l2.ReadExReq.mshrMissRate::total      1.000000                       # mshr miss rate for ReadExReq accesses (Ratio)
system.l2.ReadExReq.avgMshrMissLatency::cpu.data 106218.235759                       # average ReadExReq mshr miss latency ((Tick/Count))
system.l2.ReadExReq.avgMshrMissLatency::total 106218.235759                       # average ReadExReq mshr miss latency ((Tick/Count))
system.l2.ReadSharedReq.hits::cpu.data             24                       # number of ReadSharedReq hits (Count)
system.l2.ReadSharedReq.hits::total                24                       # number of ReadSharedReq hits (Count)
system.l2.ReadSharedReq.misses::cpu.data      4195062                       # number of ReadSharedReq misses (Count)
system.l2.ReadSharedReq.misses::total         4195062                       # number of ReadSharedReq misses (Count)
system.l2.ReadSharedReq.missLatency::cpu.data 485941454000                       # number of ReadSharedReq miss ticks (Tick)
system.l2.ReadSharedReq.missLatency::total 485941454000                       # number of ReadSharedReq miss ticks (Tick)
system.l2.ReadSharedReq.accesses::cpu.data      4195086                       # number of ReadSharedReq accesses(hits+misses) (Count)
system.l2.ReadSharedReq.accesses::total       4195086                       # number of ReadSharedReq accesses(hits+misses) (Count)
system.l2.ReadSharedReq.missRate::cpu.data     0.999994                       # miss rate for ReadSharedReq accesses (Ratio)
system.l2.ReadSharedReq.missRate::total      0.999994                       # miss rate for ReadSharedReq accesses (Ratio)
system.l2.ReadSharedReq.avgMissLatency::cpu.data 115836.536862                       # average ReadSharedReq miss latency ((Tick/Count))
system.l2.ReadSharedReq.avgMissLatency::total 115836.536862                       # average ReadSharedReq miss latency ((Tick/Count))
system.l2.ReadSharedReq.mshrMisses::cpu.data      4195062                       # number of ReadSharedReq MSHR misses (Count)
system.l2.ReadSharedReq.mshrMisses::total      4195062                       # number of ReadSharedReq MSHR misses (Count)
system.l2.ReadSharedReq.mshrMissLatency::cpu.data 427210586000                       # number of ReadSharedReq MSHR miss ticks (Tick)
system.l2.ReadSharedReq.mshrMissLatency::total 427210586000                       # number of ReadSharedReq MSHR miss ticks (Tick)
system.l2.ReadSharedReq.mshrMissRate::cpu.data     0.999994                       # mshr miss rate for ReadSharedReq accesses (Ratio)
system.l2.ReadSharedReq.mshrMissRate::total     0.999994                       # mshr miss rate for ReadSharedReq accesses (Ratio)
system.l2.ReadSharedReq.avgMshrMissLatency::cpu.data 101836.536862                       # average ReadSharedReq mshr miss latency ((Tick/Count))
system.l2.ReadSharedReq.avgMshrMissLatency::total 101836.536862                       # average ReadSharedReq mshr miss latency ((Tick/Count))
system.l2.WritebackClean.hits::writebacks           89                       # number of WritebackClean hits (Count)
system.l2.WritebackClean.hits::total               89                       # number of WritebackClean hits (Count)
system.l2.WritebackClean.accesses::writebacks           89                       # number of WritebackClean accesses(hits+misses) (Count)
system.l2.WritebackClean.accesses::total           89                       # number of WritebackClean accesses(hits+misses) (Count)
system.l2.WritebackDirty.hits::writebacks      4194474                       # number of WritebackDirty hits (Count)
system.l2.WritebackDirty.hits::total          4194474                       # number of WritebackDirty hits (Count)
system.l2.WritebackDirty.accesses::writebacks      4194474                       # number of WritebackDirty accesses(hits+misses) (Count)
system.l2.WritebackDirty.accesses::total      4194474                       # number of WritebackDirty accesses(hits+misses) (Count)
system.l2.power_state.pwrStateResidencyTicks::UNDEFINED 1335029815000                       # Cumulative time (in ticks) in various power states (Tick)
system.l2.tags.tagsInUse                  4093.346816                       # Average ticks per tags in use ((Tick/Count))
system.l2.tags.totalRefs                     16779134                       # Total number of references to valid blocks. (Count)
system.l2.tags.sampledRefs                    8389999                       # Sample count of references to valid blocks. (Count)
system.l2.tags.avgRefs                       1.999897                       # Average number of references to valid blocks. ((Count/Count))
system.l2.tags.warmupTick                      114000                       # The tick when the warmup percentage was hit. (Tick)
system.l2.tags.occupancies::writebacks       0.000800                       # Average occupied blocks per tick, per requestor ((Count/Tick))
system.l2.tags.occupancies::cpu.inst         0.244396                       # Average occupied blocks per tick, per requestor ((Count/Tick))
system.l2.tags.occupancies::cpu.data      4093.101620                       # Average occupied blocks per tick, per requestor ((Count/Tick))
system.l2.tags.avgOccs::writebacks           0.000000                       # Average percentage of cache occupancy ((Ratio/Tick))
system.l2.tags.avgOccs::cpu.inst             0.000060                       # Average percentage of cache occupancy ((Ratio/Tick))
system.l2.tags.avgOccs::cpu.data             0.999292                       # Average percentage of cache occupancy ((Ratio/Tick))
system.l2.tags.avgOccs::total                0.999352                       # Average percentage of cache occupancy ((Ratio/Tick))
system.l2.tags.occupanciesTaskId::1024           4096                       # Occupied blocks per task id (Count)
system.l2.tags.ageTaskId_1024::0                   61                       # Occupied blocks per task id, per block age (Count)
system.l2.tags.ageTaskId_1024::1                  480                       # Occupied blocks per task id, per block age (Count)
system.l2.tags.ageTaskId_1024::2                 3555                       # Occupied blocks per task id, per block age (Count)
system.l2.tags.ratioOccsTaskId::1024                1                       # Ratio of occupied blocks and all blocks, per task id (Ratio)
system.l2.tags.tagAccesses                  142623071                       # Number of tag accesses (Count)
system.l2.tags.dataAccesses                 142623071                       # Number of data accesses (Count)
system.l2.tags.power_state.pwrStateResidencyTicks::UNDEFINED 1335029815000                       # Cumulative time (in ticks) in various power states (Tick)
system.l2bus.transDist::ReadResp              4195522                       # Transaction distribution (Count)
system.l2bus.transDist::WritebackDirty        8388929                       # Transaction distribution (Count)
system.l2bus.transDist::WritebackClean             89                       # Transaction distribution (Count)
system.l2bus.transDist::CleanEvict            8386274                       # Transaction distribution (Count)
system.l2bus.transDist::ReadExReq             4194475                       # Transaction distribution (Count)
system.l2bus.transDist::ReadExResp            4194475                       # Transaction distribution (Count)
system.l2bus.transDist::ReadCleanReq              436                       # Transaction distribution (Count)
system.l2bus.transDist::ReadSharedReq         4195086                       # Transaction distribution (Count)
system.l2bus.pktCount_system.cpu.icache.mem_side_port::system.l2.cpu_side_port          961                       # Packet count per connected requestor and responder (Count)
system.l2bus.pktCount_system.cpu.dcache.mem_side_port::system.l2.cpu_side_port     25168171                       # Packet count per connected requestor and responder (Count)
system.l2bus.pktCount::total                 25169132                       # Packet count per connected requestor and responder (Count)
system.l2bus.pktSize_system.cpu.icache.mem_side_port::system.l2.cpu_side_port        33600                       # Cumulative packet size per connected requestor and responder (Byte)
system.l2bus.pktSize_system.cpu.dcache.mem_side_port::system.l2.cpu_side_port    805378240                       # Cumulative packet size per connected requestor and responder (Byte)
system.l2bus.pktSize::total                 805411840                       # Cumulative packet size per connected requestor and responder (Byte)
system.l2bus.snoops                           8386154                       # Total snoops (Count)
system.l2bus.snoopTraffic                   268445120                       # Total snoop traffic (Byte)
system.l2bus.snoopFanout::samples            16776151                       # Request fanout histogram (Count)
system.l2bus.snoopFanout::mean               0.000030                       # Request fanout histogram (Count)
system.l2bus.snoopFanout::stdev              0.005476                       # Request fanout histogram (Count)
system.l2bus.snoopFanout::underflows                0      0.00%      0.00% # Request fanout histogram (Count)
system.l2bus.snoopFanout::0                  16775648    100.00%    100.00% # Request fanout histogram (Count)
system.l2bus.snoopFanout::1                       503      0.00%    100.00% # Request fanout histogram (Count)
system.l2bus.snoopFanout::2                         0      0.00%    100.00% # Request fanout histogram (Count)
system.l2bus.snoopFanout::overflows                 0      0.00%    100.00% # Request fanout histogram (Count)
system.l2bus.snoopFanout::min_value                 0                       # Request fanout histogram (Count)
system.l2bus.snoopFanout::max_value                 1                       # Request fanout histogram (Count)
system.l2bus.snoopFanout::total              16776151                       # Request fanout histogram (Count)
system.l2bus.power_state.pwrStateResidencyTicks::UNDEFINED 1335029815000                       # Cumulative time (in ticks) in various power states (Tick)
system.l2bus.reqLayer0.occupancy          25168261000                       # Layer occupancy (ticks) (Tick)
system.l2bus.reqLayer0.utilization                0.0                       # Layer utilization (Ratio)
system.l2bus.respLayer0.occupancy             1308000                       # Layer occupancy (ticks) (Tick)
system.l2bus.respLayer0.utilization               0.0                       # Layer utilization (Ratio)
system.l2bus.respLayer1.occupancy         25168683000                       # Layer occupancy (ticks) (Tick)
system.l2bus.respLayer1.utilization               0.0                       # Layer utilization (Ratio)
system.l2bus.snoop_filter.totRequests        16779135                       # Total number of requests made to the snoop filter. (Count)
system.l2bus.snoop_filter.hitSingleRequests      8389138                       # Number of requests hitting in the snoop filter with a single holder of the requested data. (Count)
system.l2bus.snoop_filter.hitMultiRequests            1                       # Number of requests hitting in the snoop filter with multiple (>1) holders of the requested data. (Count)
system.l2bus.snoop_filter.totSnoops               502                       # Total number of snoops made to the snoop filter. (Count)
system.l2bus.snoop_filter.hitSingleSnoops          502                       # Number of snoops hitting in the snoop filter with a single holder of the requested data. (Count)
system.l2bus.snoop_filter.hitMultiSnoops            0                       # Number of snoops hitting in the snoop filter with multiple (>1) holders of the requested data. (Count)
system.l3.demandMisses::cpu.inst                  422                       # number of demand (read+write) misses (Count)
system.l3.demandMisses::cpu.data              8389535                       # number of demand (read+write) misses (Count)
system.l3.demandMisses::total                 8389957                       # number of demand (read+write) misses (Count)
system.l3.overallMisses::cpu.inst                 422                       # number of overall misses (Count)
system.l3.overallMisses::cpu.data             8389535                       # number of overall misses (Count)
system.l3.overallMisses::total                8389957                       # number of overall misses (Count)
system.l3.demandMissLatency::cpu.inst        36736000                       # number of demand (read+write) miss ticks (Tick)
system.l3.demandMissLatency::cpu.data    738507548000                       # number of demand (read+write) miss ticks (Tick)
system.l3.demandMissLatency::total       738544284000                       # number of demand (read+write) miss ticks (Tick)
system.l3.overallMissLatency::cpu.inst       36736000                       # number of overall miss ticks (Tick)
system.l3.overallMissLatency::cpu.data   738507548000                       # number of overall miss ticks (Tick)
system.l3.overallMissLatency::total      738544284000                       # number of overall miss ticks (Tick)
system.l3.demandAccesses::cpu.inst                422                       # number of demand (read+write) accesses (Count)
system.l3.demandAccesses::cpu.data            8389535                       # number of demand (read+write) accesses (Count)
system.l3.demandAccesses::total               8389957                       # number of demand (read+write) accesses (Count)
system.l3.overallAccesses::cpu.inst               422                       # number of overall (read+write) accesses (Count)
system.l3.overallAccesses::cpu.data           8389535                       # number of overall (read+write) accesses (Count)
system.l3.overallAccesses::total              8389957                       # number of overall (read+write) accesses (Count)
system.l3.demandMissRate::cpu.inst                  1                       # miss rate for demand accesses (Ratio)
system.l3.demandMissRate::cpu.data                  1                       # miss rate for demand accesses (Ratio)
system.l3.demandMissRate::total                     1                       # miss rate for demand accesses (Ratio)
system.l3.overallMissRate::cpu.inst                 1                       # miss rate for overall accesses (Ratio)
system.l3.overallMissRate::cpu.data                 1                       # miss rate for overall accesses (Ratio)
system.l3.overallMissRate::total                    1                       # miss rate for overall accesses (Ratio)
system.l3.demandAvgMissLatency::cpu.inst 87052.132701                       # average overall miss latency in ticks ((Tick/Count))
system.l3.demandAvgMissLatency::cpu.data 88027.232499                       # average overall miss latency in ticks ((Tick/Count))
system.l3.demandAvgMissLatency::total    88027.183453                       # average overall miss latency in ticks ((Tick/Count))
[...]
system.mem_ctrl.dram.bytesInstRead::total        27008                       # Number of instructions bytes read from this memory (Byte)
system.mem_ctrl.dram.bytesWritten::writebacks    268445120                       # Number of bytes written to this memory (Byte)
system.mem_ctrl.dram.bytesWritten::total    268445120                       # Number of bytes written to this memory (Byte)
system.mem_ctrl.dram.numReads::cpu.inst           422                       # Number of read requests responded to by this memory (Count)
system.mem_ctrl.dram.numReads::cpu.data       8389535                       # Number of read requests responded to by this memory (Count)
system.mem_ctrl.dram.numReads::total          8389957                       # Number of read requests responded to by this memory (Count)
system.mem_ctrl.dram.numWrites::writebacks      4194455                       # Number of write requests responded to by this memory (Count)
system.mem_ctrl.dram.numWrites::total         4194455                       # Number of write requests responded to by this memory (Count)
system.mem_ctrl.dram.bwRead::cpu.inst           20230                       # Total read bandwidth from this memory ((Byte/Second))
system.mem_ctrl.dram.bwRead::cpu.data       402185954                       # Total read bandwidth from this memory ((Byte/Second))
system.mem_ctrl.dram.bwRead::total          402206184                       # Total read bandwidth from this memory ((Byte/Second))
system.mem_ctrl.dram.bwInstRead::cpu.inst        20230                       # Instruction read bandwidth from this memory ((Byte/Second))
system.mem_ctrl.dram.bwInstRead::total          20230                       # Instruction read bandwidth from this memory ((Byte/Second))
system.mem_ctrl.dram.bwWrite::writebacks    201077996                       # Write bandwidth from this memory ((Byte/Second))
system.mem_ctrl.dram.bwWrite::total         201077996                       # Write bandwidth from this memory ((Byte/Second))
system.mem_ctrl.dram.bwTotal::writebacks    201077996                       # Total bandwidth to/from this memory ((Byte/Second))
system.mem_ctrl.dram.bwTotal::cpu.inst          20230                       # Total bandwidth to/from this memory ((Byte/Second))
system.mem_ctrl.dram.bwTotal::cpu.data      402185954                       # Total bandwidth to/from this memory ((Byte/Second))
system.mem_ctrl.dram.bwTotal::total         603284181                       # Total bandwidth to/from this memory ((Byte/Second))
system.mem_ctrl.dram.readBursts               8389859                       # Number of DRAM read bursts (Count)
system.mem_ctrl.dram.writeBursts              4194429                       # Number of DRAM write bursts (Count)
system.mem_ctrl.dram.perBankRdBursts::0        524463                       # Per bank write bursts (Count)
system.mem_ctrl.dram.perBankRdBursts::1        524423                       # Per bank write bursts (Count)
system.mem_ctrl.dram.perBankRdBursts::2        524418                       # Per bank write bursts (Count)
system.mem_ctrl.dram.perBankRdBursts::3        524355                       # Per bank write bursts (Count)
system.mem_ctrl.dram.perBankRdBursts::4        524345                       # Per bank write bursts (Count)
system.mem_ctrl.dram.perBankRdBursts::5        524470                       # Per bank write bursts (Count)
system.mem_ctrl.dram.perBankRdBursts::6        524339                       # Per bank write bursts (Count)
system.mem_ctrl.dram.perBankRdBursts::7        524325                       # Per bank write bursts (Count)
system.mem_ctrl.dram.perBankRdBursts::8        524356                       # Per bank write bursts (Count)
system.mem_ctrl.dram.perBankRdBursts::9        524398                       # Per bank write bursts (Count)
system.mem_ctrl.dram.perBankRdBursts::10       524204                       # Per bank write bursts (Count)
system.mem_ctrl.dram.perBankRdBursts::11       524290                       # Per bank write bursts (Count)
system.mem_ctrl.dram.perBankRdBursts::12       524290                       # Per bank write bursts (Count)
system.mem_ctrl.dram.perBankRdBursts::13       524368                       # Per bank write bursts (Count)
system.mem_ctrl.dram.perBankRdBursts::14       524436                       # Per bank write bursts (Count)
system.mem_ctrl.dram.perBankRdBursts::15       524379                       # Per bank write bursts (Count)
system.mem_ctrl.dram.perBankWrBursts::0        262144                       # Per bank write bursts (Count)
system.mem_ctrl.dram.perBankWrBursts::1        262144                       # Per bank write bursts (Count)
system.mem_ctrl.dram.perBankWrBursts::2        262144                       # Per bank write bursts (Count)
system.mem_ctrl.dram.perBankWrBursts::3        262144                       # Per bank write bursts (Count)
system.mem_ctrl.dram.perBankWrBursts::4        262145                       # Per bank write bursts (Count)
system.mem_ctrl.dram.perBankWrBursts::5        262189                       # Per bank write bursts (Count)
system.mem_ctrl.dram.perBankWrBursts::6        262160                       # Per bank write bursts (Count)
system.mem_ctrl.dram.perBankWrBursts::7        262144                       # Per bank write bursts (Count)
system.mem_ctrl.dram.perBankWrBursts::8        262156                       # Per bank write bursts (Count)
system.mem_ctrl.dram.perBankWrBursts::9        262211                       # Per bank write bursts (Count)
system.mem_ctrl.dram.perBankWrBursts::10       262128                       # Per bank write bursts (Count)
system.mem_ctrl.dram.perBankWrBursts::11       262144                       # Per bank write bursts (Count)
system.mem_ctrl.dram.perBankWrBursts::12       262144                       # Per bank write bursts (Count)
system.mem_ctrl.dram.perBankWrBursts::13       262144                       # Per bank write bursts (Count)
system.mem_ctrl.dram.perBankWrBursts::14       262144                       # Per bank write bursts (Count)
system.mem_ctrl.dram.perBankWrBursts::15       262144                       # Per bank write bursts (Count)
system.mem_ctrl.dram.totQLat              67220882500                       # Total ticks spent queuing (Tick)
system.mem_ctrl.dram.totBusLat            41949295000                       # Total ticks spent in databus transfers (Tick)
system.mem_ctrl.dram.totMemAccLat        224530738750                       # Total ticks spent from burst creation until serviced by the DRAM (Tick)
system.mem_ctrl.dram.avgQLat                  8012.16                       # Average queueing delay per DRAM burst ((Tick/Count))
system.mem_ctrl.dram.avgBusLat                5000.00                       # Average bus latency per DRAM burst ((Tick/Count))
system.mem_ctrl.dram.avgMemAccLat            26762.16                       # Average memory access latency per DRAM burst ((Tick/Count))
system.mem_ctrl.dram.readRowHits              7577037                       # Number of row buffer hits during reads (Count)
system.mem_ctrl.dram.writeRowHits             3726252                       # Number of row buffer hits during writes (Count)
system.mem_ctrl.dram.readRowHitRate             90.31                       # Row buffer hit rate for reads (Ratio)
system.mem_ctrl.dram.writeRowHitRate            88.84                       # Row buffer hit rate for writes (Ratio)
system.mem_ctrl.dram.bytesPerActivate::samples      1280994                       # Bytes accessed per row activation (Byte)
system.mem_ctrl.dram.bytesPerActivate::mean   628.724506                       # Bytes accessed per row activation (Byte)
system.mem_ctrl.dram.bytesPerActivate::gmean   437.414977                       # Bytes accessed per row activation (Byte)
system.mem_ctrl.dram.bytesPerActivate::stdev   408.457521                       # Bytes accessed per row activation (Byte)
system.mem_ctrl.dram.bytesPerActivate::0-127        51869      4.05%      4.05% # Bytes accessed per row activation (Byte)
system.mem_ctrl.dram.bytesPerActivate::128-255       367391     28.68%     32.73% # Bytes accessed per row activation (Byte)
system.mem_ctrl.dram.bytesPerActivate::256-383        80680      6.30%     39.03% # Bytes accessed per row activation (Byte)
system.mem_ctrl.dram.bytesPerActivate::384-511        40904      3.19%     42.22% # Bytes accessed per row activation (Byte)
system.mem_ctrl.dram.bytesPerActivate::512-639        39762      3.10%     45.32% # Bytes accessed per row activation (Byte)
system.mem_ctrl.dram.bytesPerActivate::640-767        36704      2.87%     48.19% # Bytes accessed per row activation (Byte)
system.mem_ctrl.dram.bytesPerActivate::768-895        39202      3.06%     51.25% # Bytes accessed per row activation (Byte)
system.mem_ctrl.dram.bytesPerActivate::896-1023        54238      4.23%     55.48% # Bytes accessed per row activation (Byte)
system.mem_ctrl.dram.bytesPerActivate::1024-1151       570244     44.52%    100.00% # Bytes accessed per row activation (Byte)
system.mem_ctrl.dram.bytesPerActivate::total      1280994                       # Bytes accessed per row activation (Byte)
system.mem_ctrl.dram.dramBytesRead          536950976                       # Total bytes read (Byte)
system.mem_ctrl.dram.dramBytesWritten       268443456                       # Total bytes written (Byte)
system.mem_ctrl.dram.avgRdBW               402.201486                       # Average DRAM read bandwidth in MiBytes/s ((Byte/Second))
system.mem_ctrl.dram.avgWrBW               201.076750                       # Average DRAM write bandwidth in MiBytes/s ((Byte/Second))
system.mem_ctrl.dram.peakBW                  12800.00                       # Theoretical peak bandwidth in MiByte/s ((Byte/Second))
system.mem_ctrl.dram.busUtil                     4.71                       # Data bus utilization in percentage (Ratio)
system.mem_ctrl.dram.busUtilRead                 3.14                       # Data bus utilization in percentage for reads (Ratio)
system.mem_ctrl.dram.busUtilWrite                1.57                       # Data bus utilization in percentage for writes (Ratio)
system.mem_ctrl.dram.pageHitRate                89.82                       # Row buffer hit rate, read and write combined (Ratio)
system.mem_ctrl.dram.power_state.pwrStateResidencyTicks::UNDEFINED 1335029815000                       # Cumulative time (in ticks) in various power states (Tick)
system.mem_ctrl.dram.rank0.actEnergy       4571370720                       # Energy for activate commands per rank (pJ) (Joule)
system.mem_ctrl.dram.rank0.preEnergy       2429722185                       # Energy for precharge commands per rank (pJ) (Joule)
system.mem_ctrl.dram.rank0.readEnergy     29953285320                       # Energy for read commands per rank (pJ) (Joule)
system.mem_ctrl.dram.rank0.writeEnergy    10947457080                       # Energy for write commands per rank (pJ) (Joule)
system.mem_ctrl.dram.rank0.refreshEnergy 105385559760.000015                       # Energy for refresh commands per rank (pJ) (Joule)
system.mem_ctrl.dram.rank0.actBackEnergy 309891022200                       # Energy for active background per rank (pJ) (Joule)
system.mem_ctrl.dram.rank0.preBackEnergy 251690588160                       # Energy for precharge background per rank (pJ) (Joule)
system.mem_ctrl.dram.rank0.actPowerDownEnergy            0                       # Energy for active power-down per rank (pJ) (Joule)
system.mem_ctrl.dram.rank0.prePowerDownEnergy            0                       # Energy for precharge power-down per rank (pJ) (Joule)
system.mem_ctrl.dram.rank0.selfRefreshEnergy            0                       # Energy for self refresh per rank (pJ) (Joule)
system.mem_ctrl.dram.rank0.totalEnergy   714869005425                       # Total energy per rank (pJ) (Joule)
system.mem_ctrl.dram.rank0.averagePower    535.470442                       # Core power per rank (mW) (Watt)
system.mem_ctrl.dram.rank0.totalIdleTime            0                       # Total Idle time Per DRAM Rank (Tick)
system.mem_ctrl.dram.rank0.pwrStateTime::IDLE 646465690750                       # Time in different power states (Tick)
system.mem_ctrl.dram.rank0.pwrStateTime::REF  44579340000                       # Time in different power states (Tick)
system.mem_ctrl.dram.rank0.pwrStateTime::SREF            0                       # Time in different power states (Tick)
system.mem_ctrl.dram.rank0.pwrStateTime::PRE_PDN            0                       # Time in different power states (Tick)
system.mem_ctrl.dram.rank0.pwrStateTime::ACT 643984784250                       # Time in different power states (Tick)
system.mem_ctrl.dram.rank0.pwrStateTime::ACT_PDN            0                       # Time in different power states (Tick)
system.mem_ctrl.dram.rank1.actEnergy       4574962140                       # Energy for activate commands per rank (pJ) (Joule)
system.mem_ctrl.dram.rank1.preEnergy       2431650045                       # Energy for precharge commands per rank (pJ) (Joule)
system.mem_ctrl.dram.rank1.readEnergy     29950307940                       # Energy for read commands per rank (pJ) (Joule)
system.mem_ctrl.dram.rank1.writeEnergy    10947462300                       # Energy for write commands per rank (pJ) (Joule)
system.mem_ctrl.dram.rank1.refreshEnergy 105385559760.000015                       # Energy for refresh commands per rank (pJ) (Joule)
system.mem_ctrl.dram.rank1.actBackEnergy 309832769340                       # Energy for active background per rank (pJ) (Joule)
system.mem_ctrl.dram.rank1.preBackEnergy 251739643200                       # Energy for precharge background per rank (pJ) (Joule)
system.mem_ctrl.dram.rank1.actPowerDownEnergy            0                       # Energy for active power-down per rank (pJ) (Joule)
system.mem_ctrl.dram.rank1.prePowerDownEnergy            0                       # Energy for precharge power-down per rank (pJ) (Joule)
system.mem_ctrl.dram.rank1.selfRefreshEnergy            0                       # Energy for self refresh per rank (pJ) (Joule)
system.mem_ctrl.dram.rank1.totalEnergy   714862354725                       # Total energy per rank (pJ) (Joule)
system.mem_ctrl.dram.rank1.averagePower    535.465461                       # Core power per rank (mW) (Watt)
system.mem_ctrl.dram.rank1.totalIdleTime            0                       # Total Idle time Per DRAM Rank (Tick)
system.mem_ctrl.dram.rank1.pwrStateTime::IDLE 646579938000                       # Time in different power states (Tick)
system.mem_ctrl.dram.rank1.pwrStateTime::REF  44579340000                       # Time in different power states (Tick)
system.mem_ctrl.dram.rank1.pwrStateTime::SREF            0                       # Time in different power states (Tick)
system.mem_ctrl.dram.rank1.pwrStateTime::PRE_PDN            0                       # Time in different power states (Tick)
system.mem_ctrl.dram.rank1.pwrStateTime::ACT 643870537000                       # Time in different power states (Tick)
system.mem_ctrl.dram.rank1.pwrStateTime::ACT_PDN            0                       # Time in different power states (Tick)
system.mem_ctrl.power_state.pwrStateResidencyTicks::UNDEFINED 1335029815000                       # Cumulative time (in ticks) in various power states (Tick)
system.membus.transDist::ReadResp             4195484                       # Transaction distribution (Count)
system.membus.transDist::WritebackDirty       4194455                       # Transaction distribution (Count)
system.membus.transDist::CleanEvict           3933107                       # Transaction distribution (Count)
system.membus.transDist::ReadExReq            4194473                       # Transaction distribution (Count)
system.membus.transDist::ReadExResp           4194473                       # Transaction distribution (Count)
system.membus.transDist::ReadSharedReq        4195484                       # Transaction distribution (Count)
system.membus.pktCount_system.l3.mem_side_port::system.mem_ctrl.port     24907476                       # Packet count per connected requestor and responder (Count)
system.membus.pktCount::total                24907476                       # Packet count per connected requestor and responder (Count)
system.membus.pktSize_system.l3.mem_side_port::system.mem_ctrl.port    805402368                       # Cumulative packet size per connected requestor and responder (Byte)
system.membus.pktSize::total                805402368                       # Cumulative packet size per connected requestor and responder (Byte)
system.membus.snoops                                0                       # Total snoops (Count)
system.membus.snoopTraffic                          0                       # Total snoop traffic (Byte)
system.membus.snoopFanout::samples            8389957                       # Request fanout histogram (Count)
system.membus.snoopFanout::mean                     0                       # Request fanout histogram (Count)
system.membus.snoopFanout::stdev                    0                       # Request fanout histogram (Count)
system.membus.snoopFanout::underflows               0      0.00%      0.00% # Request fanout histogram (Count)
system.membus.snoopFanout::0                  8389957    100.00%    100.00% # Request fanout histogram (Count)
system.membus.snoopFanout::1                        0      0.00%    100.00% # Request fanout histogram (Count)
system.membus.snoopFanout::overflows                0      0.00%    100.00% # Request fanout histogram (Count)
system.membus.snoopFanout::min_value                0                       # Request fanout histogram (Count)
system.membus.snoopFanout::max_value                0                       # Request fanout histogram (Count)
system.membus.snoopFanout::total              8389957                       # Request fanout histogram (Count)
system.membus.power_state.pwrStateResidencyTicks::UNDEFINED 1335029815000                       # Cumulative time (in ticks) in various power states (Tick)
system.membus.reqLayer0.occupancy         33295339000                       # Layer occupancy (ticks) (Tick)
system.membus.reqLayer0.utilization               0.0                       # Layer utilization (Ratio)
system.membus.respLayer0.occupancy        44176933250                       # Layer occupancy (ticks) (Tick)
system.membus.respLayer0.utilization              0.0                       # Layer utilization (Ratio)
system.membus.snoop_filter.totRequests       16517519                       # Total number of requests made to the snoop filter. (Count)
system.membus.snoop_filter.hitSingleRequests      8127562                       # Number of requests hitting in the snoop filter with a single holder of the requested data. (Count)
system.membus.snoop_filter.hitMultiRequests            0                       # Number of requests hitting in the snoop filter with multiple (>1) holders of the requested data. (Count)
system.membus.snoop_filter.totSnoops                0                       # Total number of snoops made to the snoop filter. (Count)
system.membus.snoop_filter.hitSingleSnoops            0                       # Number of snoops hitting in the snoop filter with a single holder of the requested data. (Count)
system.membus.snoop_filter.hitMultiSnoops            0                       # Number of snoops hitting in the snoop filter with multiple (>1) holders of the requested data. (Count)
system.workload.inst.arm                            0                       # number of arm instructions executed (Count)
system.workload.inst.quiesce                        0                       # number of quiesce instructions executed (Count)

---------- End Simulation Statistics   ----------
