
---------- Begin Simulation Statistics ----------
simSeconds                                   0.068231                       # Number of seconds simulated (Second)
simTicks                                  68231162000                       # Number of ticks simulated (Tick)
finalTick                                 68231162000                       # Number of ticks from beginning of simulation (restored from checkpoints and never reset) (Tick)
simFreq                                  1000000000000                       # The number of ticks per simulated second ((Tick/Second))
hostSeconds                                      1.86                       # Real time elapsed on the host (Second)
hostTickRate                              36715339088                       # The number of ticks simulated per host second (ticks/s) ((Tick/Second))
hostMemory                                     742476                       # Number of bytes of host memory used (Byte)
simInsts                                      2743777                       # Number of instructions simulated (Count)
simOps                                        2743825                       # Number of ops (including micro ops) simulated (Count)
hostInstRate                                  1476365                       # Simulator instruction rate (inst/s) ((Count/Second))
hostOpRate                                    1476389                       # Simulator op (including micro ops) rate (op/s) ((Count/Second))
system.clk_domain.clock                          1000                       # Clock period in ticks (Tick)
system.clk_domain.voltage_domain.voltage            1                       # Voltage in Volts (Volt)
system.cpu.numCycles                         68231162                       # Number of cpu cycles simulated (Cycle)
system.cpu.cpi                              24.858137                       # CPI: cycles per instruction (core level) ((Cycle/Count))
system.cpu.ipc                               0.040228                       # IPC: instructions per cycle (core level) ((Count/Cycle))
system.cpu.numWorkItemsStarted                      0                       # Number of work items this cpu started (Count)
system.cpu.numWorkItemsCompleted                    0                       # Number of work items this cpu completed (Count)
system.cpu.commitStats0.numInsts              2744822                       # Number of instructions committed (thread level) (Count)
system.cpu.commitStats0.numOps                2744870                       # Number of ops (including micro ops) committed (thread level) (Count)
system.cpu.commitStats0.numInstsNotNOP              0                       # Number of instructions committed excluding NOPs or prefetches (Count)
system.cpu.commitStats0.numOpsNotNOP                0                       # Number of Ops (including micro ops) Simulated (Count)
system.cpu.commitStats0.cpi                 24.858137                       # CPI: cycles per instruction (thread level) ((Cycle/Count))
system.cpu.commitStats0.ipc                  0.040228                       # IPC: instructions per cycle (thread level) ((Count/Cycle))
system.cpu.commitStats0.numMemRefs                  0                       # Number of memory references committed (Count)
system.cpu.commitStats0.numFpInsts                 12                       # Number of float instructions (Count)
system.cpu.commitStats0.numIntInsts           2741852                       # Number of integer instructions (Count)
system.cpu.commitStats0.numLoadInsts           279934                       # Number of load instructions (Count)
system.cpu.commitStats0.numStoreInsts          267960                       # Number of store instructions (Count)
system.cpu.commitStats0.numVecInsts                 0                       # Number of vector instructions (Count)
system.cpu.commitStats0.committedInstType::No_OpClass          115      0.00%      0.00% # Class of committed instruction. (Count)
system.cpu.commitStats0.committedInstType::IntAlu      2196831     80.03%     80.04% # Class of committed instruction. (Count)
system.cpu.commitStats0.committedInstType::IntMult           24      0.00%     80.04% # Class of committed instruction. (Count)
system.cpu.commitStats0.committedInstType::IntDiv            6      0.00%     80.04% # Class of committed instruction. (Count)
system.cpu.commitStats0.committedInstType::FloatAdd            0      0.00%     80.04% # Class of committed instruction. (Count)
system.cpu.commitStats0.committedInstType::FloatCmp            0      0.00%     80.04% # Class of committed instruction. (Count)
system.cpu.commitStats0.committedInstType::FloatCvt            0      0.00%     80.04% # Class of committed instruction. (Count)
system.cpu.commitStats0.committedInstType::FloatMult            0      0.00%     80.04% # Class of committed instruction. (Count)
system.cpu.commitStats0.committedInstType::FloatMultAcc            0      0.00%     80.04% # Class of committed instruction. (Count)
system.cpu.commitStats0.committedInstType::FloatDiv            0      0.00%     80.04% # Class of committed instruction. (Count)
system.cpu.commitStats0.committedInstType::FloatMisc            0      0.00%     80.04% # Class of committed instruction. (Count)
system.cpu.commitStats0.committedInstType::FloatSqrt            0      0.00%     80.04% # Class of committed instruction. (Count)
system.cpu.commitStats0.committedInstType::SimdAdd            0      0.00%     80.04% # Class of committed instruction. (Count)
system.cpu.commitStats0.committedInstType::SimdAddAcc            0      0.00%     80.04% # Class of committed instruction. (Count)
system.cpu.commitStats0.committedInstType::SimdAlu            0      0.00%     80.04% # Class of committed instruction. (Count)
system.cpu.commitStats0.committedInstType::SimdCmp            0      0.00%     80.04% # Class of committed instruction. (Count)
system.cpu.commitStats0.committedInstType::SimdCvt            0      0.00%     80.04% # Class of committed instruction. (Count)
system.cpu.commitStats0.committedInstType::SimdMisc            0      0.00%     80.04% # Class of committed instruction. (Count)
system.cpu.commitStats0.committedInstType::SimdMult            0      0.00%     80.04% # Class of committed instruction. (Count)
system.cpu.commitStats0.committedInstType::SimdMultAcc            0      0.00%     80.04% # Class of committed instruction. (Count)
system.cpu.commitStats0.committedInstType::SimdMatMultAcc            0      0.00%     80.04% # Class of committed instruction. (Count)
system.cpu.commitStats0.committedInstType::SimdShift            0      0.00%     80.04% # Class of committed instruction. (Count)
system.cpu.commitStats0.committedInstType::SimdShiftAcc            0      0.00%     80.04% # Class of committed instruction. (Count)
system.cpu.commitStats0.committedInstType::SimdDiv            0      0.00%     80.04% # Class of committed instruction. (Count)
system.cpu.commitStats0.committedInstType::SimdSqrt            0      0.00%     80.04% # Class of committed instruction. (Count)
system.cpu.commitStats0.committedInstType::SimdFloatAdd            0      0.00%     80.04% # Class of committed instruction. (Count)
system.cpu.commitStats0.committedInstType::SimdFloatAlu            0      0.00%     80.04% # Class of committed instruction. (Count)
system.cpu.commitStats0.committedInstType::SimdFloatCmp            0      0.00%     80.04% # Class of committed instruction. (Count)
system.cpu.commitStats0.committedInstType::SimdFloatCvt            0      0.00%     80.04% # Class of committed instruction. (Count)
system.cpu.commitStats0.committedInstType::SimdFloatDiv            0      0.00%     80.04% # Class of committed instruction. (Count)
system.cpu.commitStats0.committedInstType::SimdFloatMisc            0      0.00%     80.04% # Class of committed instruction. (Count)
system.cpu.commitStats0.committedInstType::SimdFloatMult            0      0.00%     80.04% # Class of committed instruction. (Count)
system.cpu.commitStats0.committedInstType::SimdFloatMultAcc            0      0.00%     80.04% # Class of committed instruction. (Count)
system.cpu.commitStats0.committedInstType::SimdFloatMatMultAcc            0      0.00%     80.04% # Class of committed instruction. (Count)
system.cpu.commitStats0.committedInstType::SimdFloatSqrt            0      0.00%     80.04% # Class of committed instruction. (Count)
system.cpu.commitStats0.committedInstType::SimdReduceAdd            0      0.00%     80.04% # Class of committed instruction. (Count)
system.cpu.commitStats0.committedInstType::SimdReduceAlu            0      0.00%     80.04% # Class of committed instruction. (Count)
system.cpu.commitStats0.committedInstType::SimdReduceCmp            0      0.00%     80.04% # Class of committed instruction. (Count)
system.cpu.commitStats0.committedInstType::SimdFloatReduceAdd            0      0.00%     80.04% # Class of committed instruction. (Count)
system.cpu.commitStats0.committedInstType::SimdFloatReduceCmp            0      0.00%     80.04% # Class of committed instruction. (Count)
system.cpu.commitStats0.committedInstType::SimdAes            0      0.00%     80.04% # Class of committed instruction. (Count)
system.cpu.commitStats0.committedInstType::SimdAesMix            0      0.00%     80.04% # Class of committed instruction. (Count)
system.cpu.commitStats0.committedInstType::SimdSha1Hash            0      0.00%     80.04% # Class of committed instruction. (Count)
system.cpu.commitStats0.committedInstType::SimdSha1Hash2            0      0.00%     80.04% # Class of committed instruction. (Count)
system.cpu.commitStats0.committedInstType::SimdSha256Hash            0      0.00%     80.04% # Class of committed instruction. (Count)
system.cpu.commitStats0.committedInstType::SimdSha256Hash2            0      0.00%     80.04% # Class of committed instruction. (Count)
system.cpu.commitStats0.committedInstType::SimdShaSigma2            0      0.00%     80.04% # Class of committed instruction. (Count)
system.cpu.commitStats0.committedInstType::SimdShaSigma3            0      0.00%     80.04% # Class of committed instruction. (Count)
system.cpu.commitStats0.committedInstType::SimdPredAlu            0      0.00%     80.04% # Class of committed instruction. (Count)
system.cpu.commitStats0.committedInstType::Matrix            0      0.00%     80.04% # Class of committed instruction. (Count)
system.cpu.commitStats0.committedInstType::MatrixMov            0      0.00%     80.04% # Class of committed instruction. (Count)
system.cpu.commitStats0.committedInstType::MatrixOP            0      0.00%     80.04% # Class of committed instruction. (Count)
system.cpu.commitStats0.committedInstType::MemRead       279952     10.20%     90.24% # Class of committed instruction. (Count)
system.cpu.commitStats0.committedInstType::MemWrite       267930      9.76%    100.00% # Class of committed instruction. (Count)
system.cpu.commitStats0.committedInstType::FloatMemRead            0      0.00%    100.00% # Class of committed instruction. (Count)
system.cpu.commitStats0.committedInstType::FloatMemWrite           12      0.00%    100.00% # Class of committed instruction. (Count)
system.cpu.commitStats0.committedInstType::IprAccess            0      0.00%    100.00% # Class of committed instruction. (Count)
system.cpu.commitStats0.committedInstType::InstPrefetch            0      0.00%    100.00% # Class of committed instruction. (Count)
system.cpu.commitStats0.committedInstType::SimdUnitStrideLoad            0      0.00%    100.00% # Class of committed instruction. (Count)
system.cpu.commitStats0.committedInstType::SimdUnitStrideStore            0      0.00%    100.00% # Class of committed instruction. (Count)
system.cpu.commitStats0.committedInstType::SimdUnitStrideMaskLoad            0      0.00%    100.00% # Class of committed instruction. (Count)
system.cpu.commitStats0.committedInstType::SimdUnitStrideMaskStore            0      0.00%    100.00% # Class of committed instruction. (Count)
system.cpu.commitStats0.committedInstType::SimdStridedLoad            0      0.00%    100.00% # Class of committed instruction. (Count)
system.cpu.commitStats0.committedInstType::SimdStridedStore            0      0.00%    100.00% # Class of committed instruction. (Count)
system.cpu.commitStats0.committedInstType::SimdIndexedLoad            0      0.00%    100.00% # Class of committed instruction. (Count)
system.cpu.commitStats0.committedInstType::SimdIndexedStore            0      0.00%    100.00% # Class of committed instruction. (Count)
system.cpu.commitStats0.committedInstType::SimdWholeRegisterLoad            0      0.00%    100.00% # Class of committed instruction. (Count)
system.cpu.commitStats0.committedInstType::SimdWholeRegisterStore            0      0.00%    100.00% # Class of committed instruction. (Count)
system.cpu.commitStats0.committedInstType::SimdUnitStrideFaultOnlyFirstLoad            0      0.00%    100.00% # Class of committed instruction. (Count)
system.cpu.commitStats0.committedInstType::SimdUnitStrideSegmentedLoad            0      0.00%    100.00% # Class of committed instruction. (Count)
system.cpu.commitStats0.committedInstType::SimdUnitStrideSegmentedStore            0      0.00%    100.00% # Class of committed instruction. (Count)
system.cpu.commitStats0.committedInstType::SimdExt            0      0.00%    100.00% # Class of committed instruction. (Count)
system.cpu.commitStats0.committedInstType::SimdFloatExt            0      0.00%    100.00% # Class of committed instruction. (Count)
system.cpu.commitStats0.committedInstType::SimdConfig            0      0.00%    100.00% # Class of committed instruction. (Count)
system.cpu.commitStats0.committedInstType::total      2744870                       # Class of committed instruction. (Count)
system.cpu.commitStats0.committedControl::IsControl       555470                       # Class of control type instructions committed (Count)
system.cpu.commitStats0.committedControl::IsDirectControl       551476                       # Class of control type instructions committed (Count)
system.cpu.commitStats0.committedControl::IsIndirectControl         3994                       # Class of control type instructions committed (Count)
system.cpu.commitStats0.committedControl::IsCondControl       546524                       # Class of control type instructions committed (Count)
system.cpu.commitStats0.committedControl::IsUncondControl         8946                       # Class of control type instructions committed (Count)
system.cpu.commitStats0.committedControl::IsCall         2094                       # Class of control type instructions committed (Count)
system.cpu.commitStats0.committedControl::IsReturn         2089                       # Class of control type instructions committed (Count)
system.cpu.dcache.demandHits::cpu.data          21586                       # number of demand (read+write) hits (Count)
system.cpu.dcache.demandHits::total             21586                       # number of demand (read+write) hits (Count)
system.cpu.dcache.overallHits::cpu.data         21586                       # number of overall hits (Count)
system.cpu.dcache.overallHits::total            21586                       # number of overall hits (Count)
system.cpu.dcache.demandMisses::cpu.data       525241                       # number of demand (read+write) misses (Count)
system.cpu.dcache.demandMisses::total          525241                       # number of demand (read+write) misses (Count)
system.cpu.dcache.overallMisses::cpu.data       525241                       # number of overall misses (Count)
system.cpu.dcache.overallMisses::total         525241                       # number of overall misses (Count)
system.cpu.dcache.demandMissLatency::cpu.data  50649412000                       # number of demand (read+write) miss ticks (Tick)
system.cpu.dcache.demandMissLatency::total  50649412000                       # number of demand (read+write) miss ticks (Tick)
system.cpu.dcache.overallMissLatency::cpu.data  50649412000                       # number of overall miss ticks (Tick)
system.cpu.dcache.overallMissLatency::total  50649412000                       # number of overall miss ticks (Tick)
system.cpu.dcache.demandAccesses::cpu.data       546827                       # number of demand (read+write) accesses (Count)
system.cpu.dcache.demandAccesses::total        546827                       # number of demand (read+write) accesses (Count)
system.cpu.dcache.overallAccesses::cpu.data       546827                       # number of overall (read+write) accesses (Count)
system.cpu.dcache.overallAccesses::total       546827                       # number of overall (read+write) accesses (Count)
system.cpu.dcache.demandMissRate::cpu.data     0.960525                       # miss rate for demand accesses (Ratio)
system.cpu.dcache.demandMissRate::total      0.960525                       # miss rate for demand accesses (Ratio)
system.cpu.dcache.overallMissRate::cpu.data     0.960525                       # miss rate for overall accesses (Ratio)
system.cpu.dcache.overallMissRate::total     0.960525                       # miss rate for overall accesses (Ratio)
system.cpu.dcache.demandAvgMissLatency::cpu.data 96430.804145                       # average overall miss latency in ticks ((Tick/Count))
system.cpu.dcache.demandAvgMissLatency::total 96430.804145                       # average overall miss latency in ticks ((Tick/Count))
system.cpu.dcache.overallAvgMissLatency::cpu.data 96430.804145                       # average overall miss latency ((Tick/Count))
system.cpu.dcache.overallAvgMissLatency::total 96430.804145                       # average overall miss latency ((Tick/Count))
system.cpu.dcache.blockedCycles::no_mshrs            0                       # number of cycles access was blocked (Cycle)
system.cpu.dcache.blockedCycles::no_targets            0                       # number of cycles access was blocked (Cycle)
system.cpu.dcache.blockedCauses::no_mshrs            0                       # number of times access was blocked (Count)
system.cpu.dcache.blockedCauses::no_targets            0                       # number of times access was blocked (Count)
system.cpu.dcache.avgBlocked::no_mshrs            nan                       # average number of cycles each access was blocked ((Cycle/Count))
system.cpu.dcache.avgBlocked::no_targets          nan                       # average number of cycles each access was blocked ((Cycle/Count))
system.cpu.dcache.writebacks::writebacks       262317                       # number of writebacks (Count)
system.cpu.dcache.writebacks::total            262317                       # number of writebacks (Count)
system.cpu.dcache.demandMshrMisses::cpu.data       525241                       # number of demand (read+write) MSHR misses (Count)
system.cpu.dcache.demandMshrMisses::total       525241                       # number of demand (read+write) MSHR misses (Count)
system.cpu.dcache.overallMshrMisses::cpu.data       525241                       # number of overall MSHR misses (Count)
system.cpu.dcache.overallMshrMisses::total       525241                       # number of overall MSHR misses (Count)
system.cpu.dcache.demandMshrMissLatency::cpu.data  48548448000                       # number of demand (read+write) MSHR miss ticks (Tick)
system.cpu.dcache.demandMshrMissLatency::total  48548448000                       # number of demand (read+write) MSHR miss ticks (Tick)
system.cpu.dcache.overallMshrMissLatency::cpu.data  48548448000                       # number of overall MSHR miss ticks (Tick)
system.cpu.dcache.overallMshrMissLatency::total  48548448000                       # number of overall MSHR miss ticks (Tick)
system.cpu.dcache.demandMshrMissRate::cpu.data     0.960525                       # mshr miss ratio for demand accesses (Ratio)
system.cpu.dcache.demandMshrMissRate::total     0.960525                       # mshr miss ratio for demand accesses (Ratio)
system.cpu.dcache.overallMshrMissRate::cpu.data     0.960525                       # mshr miss ratio for overall accesses (Ratio)
system.cpu.dcache.overallMshrMissRate::total     0.960525                       # mshr miss ratio for overall accesses (Ratio)
system.cpu.dcache.demandAvgMshrMissLatency::cpu.data 92430.804145                       # average overall mshr miss latency ((Tick/Count))
system.cpu.dcache.demandAvgMshrMissLatency::total 92430.804145                       # average overall mshr miss latency ((Tick/Count))
system.cpu.dcache.overallAvgMshrMissLatency::cpu.data 92430.804145                       # average overall mshr miss latency ((Tick/Count))
system.cpu.dcache.overallAvgMshrMissLatency::total 92430.804145                       # average overall mshr miss latency ((Tick/Count))
system.cpu.dcache.replacements                 524720                       # number of replacements (Count)
system.cpu.dcache.LoadLockedReq.hits::cpu.data           10                       # number of LoadLockedReq hits (Count)
system.cpu.dcache.LoadLockedReq.hits::total           10                       # number of LoadLockedReq hits (Count)
system.cpu.dcache.LoadLockedReq.misses::cpu.data            1                       # number of LoadLockedReq misses (Count)
system.cpu.dcache.LoadLockedReq.misses::total            1                       # number of LoadLockedReq misses (Count)
system.cpu.dcache.LoadLockedReq.missLatency::cpu.data        80000                       # number of LoadLockedReq miss ticks (Tick)
system.cpu.dcache.LoadLockedReq.missLatency::total        80000                       # number of LoadLockedReq miss ticks (Tick)
system.cpu.dcache.LoadLockedReq.accesses::cpu.data           11                       # number of LoadLockedReq accesses(hits+misses) (Count)
system.cpu.dcache.LoadLockedReq.accesses::total           11                       # number of LoadLockedReq accesses(hits+misses) (Count)
system.cpu.dcache.LoadLockedReq.missRate::cpu.data     0.090909                       # miss rate for LoadLockedReq accesses (Ratio)
system.cpu.dcache.LoadLockedReq.missRate::total     0.090909                       # miss rate for LoadLockedReq accesses (Ratio)
system.cpu.dcache.LoadLockedReq.avgMissLatency::cpu.data        80000                       # average LoadLockedReq miss latency ((Tick/Count))
system.cpu.dcache.LoadLockedReq.avgMissLatency::total        80000                       # average LoadLockedReq miss latency ((Tick/Count))
system.cpu.dcache.LoadLockedReq.mshrMisses::cpu.data            1                       # number of LoadLockedReq MSHR misses (Count)
system.cpu.dcache.LoadLockedReq.mshrMisses::total            1                       # number of LoadLockedReq MSHR misses (Count)
system.cpu.dcache.LoadLockedReq.mshrMissLatency::cpu.data        76000                       # number of LoadLockedReq MSHR miss ticks (Tick)
system.cpu.dcache.LoadLockedReq.mshrMissLatency::total        76000                       # number of LoadLockedReq MSHR miss ticks (Tick)
system.cpu.dcache.LoadLockedReq.mshrMissRate::cpu.data     0.090909                       # mshr miss rate for LoadLockedReq accesses (Ratio)
system.cpu.dcache.LoadLockedReq.mshrMissRate::total     0.090909                       # mshr miss rate for LoadLockedReq accesses (Ratio)
system.cpu.dcache.LoadLockedReq.avgMshrMissLatency::cpu.data        76000                       # average LoadLockedReq mshr miss latency ((Tick/Count))
system.cpu.dcache.LoadLockedReq.avgMshrMissLatency::total        76000                       # average LoadLockedReq mshr miss latency ((Tick/Count))
system.cpu.dcache.ReadReq.hits::cpu.data        17011                       # number of ReadReq hits (Count)
system.cpu.dcache.ReadReq.hits::total           17011                       # number of ReadReq hits (Count)
system.cpu.dcache.ReadReq.misses::cpu.data       262912                       # number of ReadReq misses (Count)
system.cpu.dcache.ReadReq.misses::total        262912                       # number of ReadReq misses (Count)
system.cpu.dcache.ReadReq.missLatency::cpu.data  21123526000                       # number of ReadReq miss ticks (Tick)
system.cpu.dcache.ReadReq.missLatency::total  21123526000                       # number of ReadReq miss ticks (Tick)
system.cpu.dcache.ReadReq.accesses::cpu.data       279923                       # number of ReadReq accesses(hits+misses) (Count)
system.cpu.dcache.ReadReq.accesses::total       279923                       # number of ReadReq accesses(hits+misses) (Count)
system.cpu.dcache.ReadReq.missRate::cpu.data     0.939230                       # miss rate for ReadReq accesses (Ratio)
system.cpu.dcache.ReadReq.missRate::total     0.939230                       # miss rate for ReadReq accesses (Ratio)
system.cpu.dcache.ReadReq.avgMissLatency::cpu.data 80344.472675                       # average ReadReq miss latency ((Tick/Count))
system.cpu.dcache.ReadReq.avgMissLatency::total 80344.472675                       # average ReadReq miss latency ((Tick/Count))
system.cpu.dcache.ReadReq.mshrMisses::cpu.data       262912                       # number of ReadReq MSHR misses (Count)
system.cpu.dcache.ReadReq.mshrMisses::total       262912                       # number of ReadReq MSHR misses (Count)
system.cpu.dcache.ReadReq.mshrMissLatency::cpu.data  20071878000                       # number of ReadReq MSHR miss ticks (Tick)
system.cpu.dcache.ReadReq.mshrMissLatency::total  20071878000                       # number of ReadReq MSHR miss ticks (Tick)
system.cpu.dcache.ReadReq.mshrMissRate::cpu.data     0.939230                       # mshr miss rate for ReadReq accesses (Ratio)
system.cpu.dcache.ReadReq.mshrMissRate::total     0.939230                       # mshr miss rate for ReadReq accesses (Ratio)
system.cpu.dcache.ReadReq.avgMshrMissLatency::cpu.data 76344.472675                       # average ReadReq mshr miss latency ((Tick/Count))
system.cpu.dcache.ReadReq.avgMshrMissLatency::total 76344.472675                       # average ReadReq mshr miss latency ((Tick/Count))
system.cpu.dcache.StoreCondReq.hits::cpu.data            8                       # number of StoreCondReq hits (Count)
system.cpu.dcache.StoreCondReq.hits::total            8                       # number of StoreCondReq hits (Count)
system.cpu.dcache.StoreCondReq.misses::cpu.data            3                       # number of StoreCondReq misses (Count)
system.cpu.dcache.StoreCondReq.misses::total            3                       # number of StoreCondReq misses (Count)
system.cpu.dcache.StoreCondReq.missLatency::cpu.data        72000                       # number of StoreCondReq miss ticks (Tick)
system.cpu.dcache.StoreCondReq.missLatency::total        72000                       # number of StoreCondReq miss ticks (Tick)
system.cpu.dcache.StoreCondReq.accesses::cpu.data           11                       # number of StoreCondReq accesses(hits+misses) (Count)
system.cpu.dcache.StoreCondReq.accesses::total           11                       # number of StoreCondReq accesses(hits+misses) (Count)
system.cpu.dcache.StoreCondReq.missRate::cpu.data     0.272727                       # miss rate for StoreCondReq accesses (Ratio)
system.cpu.dcache.StoreCondReq.missRate::total     0.272727                       # miss rate for StoreCondReq accesses (Ratio)
system.cpu.dcache.StoreCondReq.avgMissLatency::cpu.data        24000                       # average StoreCondReq miss latency ((Tick/Count))
system.cpu.dcache.StoreCondReq.avgMissLatency::total        24000                       # average StoreCondReq miss latency ((Tick/Count))
system.cpu.dcache.StoreCondReq.mshrMisses::cpu.data            3                       # number of StoreCondReq MSHR misses (Count)
system.cpu.dcache.StoreCondReq.mshrMisses::total            3                       # number of StoreCondReq MSHR misses (Count)
system.cpu.dcache.StoreCondReq.mshrMissLatency::cpu.data        60000                       # number of StoreCondReq MSHR miss ticks (Tick)
system.cpu.dcache.StoreCondReq.mshrMissLatency::total        60000                       # number of StoreCondReq MSHR miss ticks (Tick)
system.cpu.dcache.StoreCondReq.mshrMissRate::cpu.data     0.272727                       # mshr miss rate for StoreCondReq accesses (Ratio)
system.cpu.dcache.StoreCondReq.mshrMissRate::total     0.272727                       # mshr miss rate for StoreCondReq accesses (Ratio)
system.cpu.dcache.StoreCondReq.avgMshrMissLatency::cpu.data        20000                       # average StoreCondReq mshr miss latency ((Tick/Count))
system.cpu.dcache.StoreCondReq.avgMshrMissLatency::total        20000                       # average StoreCondReq mshr miss latency ((Tick/Count))
system.cpu.dcache.SwapReq.hits::cpu.data           15                       # number of SwapReq hits (Count)
system.cpu.dcache.SwapReq.hits::total              15                       # number of SwapReq hits (Count)
system.cpu.dcache.SwapReq.misses::cpu.data            3                       # number of SwapReq misses (Count)
system.cpu.dcache.SwapReq.misses::total             3                       # number of SwapReq misses (Count)
system.cpu.dcache.SwapReq.missLatency::cpu.data       184000                       # number of SwapReq miss ticks (Tick)
system.cpu.dcache.SwapReq.missLatency::total       184000                       # number of SwapReq miss ticks (Tick)
system.cpu.dcache.SwapReq.accesses::cpu.data           18                       # number of SwapReq accesses(hits+misses) (Count)
system.cpu.dcache.SwapReq.accesses::total           18                       # number of SwapReq accesses(hits+misses) (Count)
system.cpu.dcache.SwapReq.missRate::cpu.data     0.166667                       # miss rate for SwapReq accesses (Ratio)
system.cpu.dcache.SwapReq.missRate::total     0.166667                       # miss rate for SwapReq accesses (Ratio)
system.cpu.dcache.SwapReq.avgMissLatency::cpu.data 61333.333333                       # average SwapReq miss latency ((Tick/Count))
system.cpu.dcache.SwapReq.avgMissLatency::total 61333.333333                       # average SwapReq miss latency ((Tick/Count))
system.cpu.dcache.SwapReq.mshrMisses::cpu.data            3                       # number of SwapReq MSHR misses (Count)
system.cpu.dcache.SwapReq.mshrMisses::total            3                       # number of SwapReq MSHR misses (Count)
system.cpu.dcache.SwapReq.mshrMissLatency::cpu.data       172000                       # number of SwapReq MSHR miss ticks (Tick)
system.cpu.dcache.SwapReq.mshrMissLatency::total       172000                       # number of SwapReq MSHR miss ticks (Tick)
system.cpu.dcache.SwapReq.mshrMissRate::cpu.data     0.166667                       # mshr miss rate for SwapReq accesses (Ratio)
system.cpu.dcache.SwapReq.mshrMissRate::total     0.166667                       # mshr miss rate for SwapReq accesses (Ratio)
system.cpu.dcache.SwapReq.avgMshrMissLatency::cpu.data 57333.333333                       # average SwapReq mshr miss latency ((Tick/Count))
system.cpu.dcache.SwapReq.avgMshrMissLatency::total 57333.333333                       # average SwapReq mshr miss latency ((Tick/Count))
system.cpu.dcache.WriteReq.hits::cpu.data         4575                       # number of WriteReq hits (Count)
system.cpu.dcache.WriteReq.hits::total           4575                       # number of WriteReq hits (Count)
system.cpu.dcache.WriteReq.misses::cpu.data       262329                       # number of WriteReq misses (Count)
system.cpu.dcache.WriteReq.misses::total       262329                       # number of WriteReq misses (Count)
system.cpu.dcache.WriteReq.missLatency::cpu.data  29525886000                       # number of WriteReq miss ticks (Tick)
system.cpu.dcache.WriteReq.missLatency::total  29525886000                       # number of WriteReq miss ticks (Tick)
system.cpu.dcache.WriteReq.accesses::cpu.data       266904                       # number of WriteReq accesses(hits+misses) (Count)
system.cpu.dcache.WriteReq.accesses::total       266904                       # number of WriteReq accesses(hits+misses) (Count)
system.cpu.dcache.WriteReq.missRate::cpu.data     0.982859                       # miss rate for WriteReq accesses (Ratio)
system.cpu.dcache.WriteReq.missRate::total     0.982859                       # miss rate for WriteReq accesses (Ratio)
system.cpu.dcache.WriteReq.avgMissLatency::cpu.data 112552.885880                       # average WriteReq miss latency ((Tick/Count))
system.cpu.dcache.WriteReq.avgMissLatency::total 112552.885880                       # average WriteReq miss latency ((Tick/Count))
system.cpu.dcache.WriteReq.mshrMisses::cpu.data       262329                       # number of WriteReq MSHR misses (Count)
system.cpu.dcache.WriteReq.mshrMisses::total       262329                       # number of WriteReq MSHR misses (Count)
system.cpu.dcache.WriteReq.mshrMissLatency::cpu.data  28476570000                       # number of WriteReq MSHR miss ticks (Tick)
system.cpu.dcache.WriteReq.mshrMissLatency::total  28476570000                       # number of WriteReq MSHR miss ticks (Tick)
system.cpu.dcache.WriteReq.mshrMissRate::cpu.data     0.982859                       # mshr miss rate for WriteReq accesses (Ratio)
system.cpu.dcache.WriteReq.mshrMissRate::total     0.982859                       # mshr miss rate for WriteReq accesses (Ratio)
system.cpu.dcache.WriteReq.avgMshrMissLatency::cpu.data 108552.885880                       # average WriteReq mshr miss latency ((Tick/Count))
system.cpu.dcache.WriteReq.avgMshrMissLatency::total 108552.885880                       # average WriteReq mshr miss latency ((Tick/Count))
system.cpu.dcache.power_state.pwrStateResidencyTicks::UNDEFINED  68231162000                       # Cumulative time (in ticks) in various power states (Tick)
system.cpu.dcache.tags.tagsInUse           509.932769                       # Average ticks per tags in use ((Tick/Count))
system.cpu.dcache.tags.totalRefs               546867                       # Total number of references to valid blocks. (Count)
system.cpu.dcache.tags.sampledRefs             525232                       # Sample count of references to valid blocks. (Count)
system.cpu.dcache.tags.avgRefs               1.041191                       # Average number of references to valid blocks. ((Count/Count))
system.cpu.dcache.tags.warmupTick              658000                       # The tick when the warmup percentage was hit. (Tick)
system.cpu.dcache.tags.occupancies::cpu.data   509.932769                       # Average occupied blocks per tick, per requestor ((Count/Tick))
system.cpu.dcache.tags.avgOccs::cpu.data     0.995962                       # Average percentage of cache occupancy ((Ratio/Tick))
system.cpu.dcache.tags.avgOccs::total        0.995962                       # Average percentage of cache occupancy ((Ratio/Tick))
system.cpu.dcache.tags.occupanciesTaskId::1024          512                       # Occupied blocks per task id (Count)
system.cpu.dcache.tags.ageTaskId_1024::0            8                       # Occupied blocks per task id, per block age (Count)
system.cpu.dcache.tags.ageTaskId_1024::1          334                       # Occupied blocks per task id, per block age (Count)
system.cpu.dcache.tags.ageTaskId_1024::2          170                       # Occupied blocks per task id, per block age (Count)
system.cpu.dcache.tags.ratioOccsTaskId::1024            1                       # Ratio of occupied blocks and all blocks, per task id (Ratio)
system.cpu.dcache.tags.tagAccesses            1618966                       # Number of tag accesses (Count)
system.cpu.dcache.tags.dataAccesses           1618966                       # Number of data accesses (Count)
system.cpu.dcache.tags.power_state.pwrStateResidencyTicks::UNDEFINED  68231162000                       # Cumulative time (in ticks) in various power states (Tick)
system.cpu.exec_context.thread_0.numMatAluAccesses            0                       # Number of matrix alu accesses (Count)
system.cpu.exec_context.thread_0.numCallsReturns         4183                       # Number of times a function call or return occured (Count)
system.cpu.exec_context.thread_0.numMatInsts            0                       # Number of matrix instructions (Count)
system.cpu.exec_context.thread_0.numIdleCycles     0.001000                       # Number of idle cycles (Cycle)
system.cpu.exec_context.thread_0.numBusyCycles 68231161.999000                       # Number of busy cycles (Cycle)
system.cpu.exec_context.thread_0.notIdleFraction     1.000000                       # Percentage of non-idle cycles (Ratio)
system.cpu.exec_context.thread_0.idleFraction     0.000000                       # Percentage of idle cycles (Ratio)
system.cpu.executeStats0.numInsts                   0                       # Number of executed instructions (Count)
system.cpu.executeStats0.numNop                     0                       # Number of nop insts executed (Count)
system.cpu.executeStats0.numBranches                0                       # Number of branches executed (Count)
system.cpu.executeStats0.numLoadInsts               0                       # Number of load instructions executed (Count)
system.cpu.executeStats0.numStoreInsts         547894                       # Number of stores executed (Count)
system.cpu.executeStats0.instRate                   0                       # Inst execution rate ((Count/Cycle))
system.cpu.executeStats0.numFpAluAccesses           12                       # Number of float alu accesses (Count)
system.cpu.executeStats0.numFpRegReads             12                       # Number of times the floating registers were read (Count)
system.cpu.executeStats0.numFpRegWrites             0                       # Number of times the floating registers were written (Count)
system.cpu.executeStats0.numIntAluAccesses      2741852                       # Number of integer alu accesses (Count)
system.cpu.executeStats0.numIntRegReads       4596752                       # Number of times the integer registers were read (Count)
system.cpu.executeStats0.numIntRegWrites      1923455                       # Number of times the integer registers were written (Count)
system.cpu.executeStats0.numMemRefs            547894                       # Number of memory refs (Count)
system.cpu.executeStats0.numMiscRegReads           30                       # Number of times the Misc registers were read (Count)
system.cpu.executeStats0.numVecAluAccesses            0                       # Number of vector alu accesses (Count)
system.cpu.executeStats0.numDiscardedOps            0                       # Number of ops (including micro ops) which were discarded before commit (Count)
system.cpu.fetchStats0.numInsts               2744822                       # Number of instructions fetched (thread level) (Count)
system.cpu.fetchStats0.numOps                 2744870                       # Number of ops (including micro ops) fetched (thread level) (Count)
system.cpu.fetchStats0.fetchRate             0.040228                       # Number of inst fetches per cycle ((Count/Cycle))
system.cpu.fetchStats0.numBranches             555470                       # Number of branches fetched (Count)
system.cpu.fetchStats0.branchRate            0.008141                       # Number of branch fetches per cycle (Ratio)
system.cpu.fetchStats0.numFetchSuspends             0                       # Number of times Execute suspended instruction fetching (Count)
system.cpu.icache.demandHits::cpu.inst        4351955                       # number of demand (read+write) hits (Count)
system.cpu.icache.demandHits::total           4351955                       # number of demand (read+write) hits (Count)
system.cpu.icache.overallHits::cpu.inst       4351955                       # number of overall hits (Count)
system.cpu.icache.overallHits::total          4351955                       # number of overall hits (Count)
system.cpu.icache.demandMisses::cpu.inst          429                       # number of demand (read+write) misses (Count)
system.cpu.icache.demandMisses::total             429                       # number of demand (read+write) misses (Count)
system.cpu.icache.overallMisses::cpu.inst          429                       # number of overall misses (Count)
system.cpu.icache.overallMisses::total            429                       # number of overall misses (Count)
system.cpu.icache.demandMissLatency::cpu.inst     87118000                       # number of demand (read+write) miss ticks (Tick)
system.cpu.icache.demandMissLatency::total     87118000                       # number of demand (read+write) miss ticks (Tick)
system.cpu.icache.overallMissLatency::cpu.inst     87118000                       # number of overall miss ticks (Tick)
system.cpu.icache.overallMissLatency::total     87118000                       # number of overall miss ticks (Tick)
system.cpu.icache.demandAccesses::cpu.inst      4352384                       # number of demand (read+write) accesses (Count)
system.cpu.icache.demandAccesses::total       4352384                       # number of demand (read+write) accesses (Count)
system.cpu.icache.overallAccesses::cpu.inst      4352384                       # number of overall (read+write) accesses (Count)
system.cpu.icache.overallAccesses::total      4352384                       # number of overall (read+write) accesses (Count)
system.cpu.icache.demandMissRate::cpu.inst     0.000099                       # miss rate for demand accesses (Ratio)
system.cpu.icache.demandMissRate::total      0.000099                       # miss rate for demand accesses (Ratio)
system.cpu.icache.overallMissRate::cpu.inst     0.000099                       # miss rate for overall accesses (Ratio)
system.cpu.icache.overallMissRate::total     0.000099                       # miss rate for overall accesses (Ratio)
system.cpu.icache.demandAvgMissLatency::cpu.inst 203072.261072                       # average overall miss latency in ticks ((Tick/Count))
system.cpu.icache.demandAvgMissLatency::total 203072.261072                       # average overall miss latency in ticks ((Tick/Count))
system.cpu.icache.overallAvgMissLatency::cpu.inst 203072.261072                       # average overall miss latency ((Tick/Count))
system.cpu.icache.overallAvgMissLatency::total 203072.261072                       # average overall miss latency ((Tick/Count))
system.cpu.icache.blockedCycles::no_mshrs            0                       # number of cycles access was blocked (Cycle)
system.cpu.icache.blockedCycles::no_targets            0                       # number of cycles access was blocked (Cycle)
system.cpu.icache.blockedCauses::no_mshrs            0                       # number of times access was blocked (Count)
system.cpu.icache.blockedCauses::no_targets            0                       # number of times access was blocked (Count)
system.cpu.icache.avgBlocked::no_mshrs            nan                       # average number of cycles each access was blocked ((Cycle/Count))
system.cpu.icache.avgBlocked::no_targets          nan                       # average number of cycles each access was blocked ((Cycle/Count))
system.cpu.icache.writebacks::writebacks           87                       # number of writebacks (Count)
system.cpu.icache.writebacks::total                87                       # number of writebacks (Count)
system.cpu.icache.demandMshrMisses::cpu.inst          429                       # number of demand (read+write) MSHR misses (Count)
system.cpu.icache.demandMshrMisses::total          429                       # number of demand (read+write) MSHR misses (Count)
system.cpu.icache.overallMshrMisses::cpu.inst          429                       # number of overall MSHR misses (Count)
system.cpu.icache.overallMshrMisses::total          429                       # number of overall MSHR misses (Count)
system.cpu.icache.demandMshrMissLatency::cpu.inst     85402000                       # number of demand (read+write) MSHR miss ticks (Tick)
system.cpu.icache.demandMshrMissLatency::total     85402000                       # number of demand (read+write) MSHR miss ticks (Tick)
system.cpu.icache.overallMshrMissLatency::cpu.inst     85402000                       # number of overall MSHR miss ticks (Tick)
system.cpu.icache.overallMshrMissLatency::total     85402000                       # number of overall MSHR miss ticks (Tick)
system.cpu.icache.demandMshrMissRate::cpu.inst     0.000099                       # mshr miss ratio for demand accesses (Ratio)
system.cpu.icache.demandMshrMissRate::total     0.000099                       # mshr miss ratio for demand accesses (Ratio)
system.cpu.icache.overallMshrMissRate::cpu.inst     0.000099                       # mshr miss ratio for overall accesses (Ratio)
system.cpu.icache.overallMshrMissRate::total     0.000099                       # mshr miss ratio for overall accesses (Ratio)
system.cpu.icache.demandAvgMshrMissLatency::cpu.inst 199072.261072                       # average overall mshr miss latency ((Tick/Count))
system.cpu.icache.demandAvgMshrMissLatency::total 199072.261072                       # average overall mshr miss latency ((Tick/Count))
system.cpu.icache.overallAvgMshrMissLatency::cpu.inst 199072.261072                       # average overall mshr miss latency ((Tick/Count))
system.cpu.icache.overallAvgMshrMissLatency::total 199072.261072                       # average overall mshr miss latency ((Tick/Count))
system.cpu.icache.replacements                     87                       # number of replacements (Count)
system.cpu.icache.ReadReq.hits::cpu.inst      4351955                       # number of ReadReq hits (Count)
system.cpu.icache.ReadReq.hits::total         4351955                       # number of ReadReq hits (Count)
system.cpu.icache.ReadReq.misses::cpu.inst          429                       # number of ReadReq misses (Count)
system.cpu.icache.ReadReq.misses::total           429                       # number of ReadReq misses (Count)
system.cpu.icache.ReadReq.missLatency::cpu.inst     87118000                       # number of ReadReq miss ticks (Tick)
system.cpu.icache.ReadReq.missLatency::total     87118000                       # number of ReadReq miss ticks (Tick)
system.cpu.icache.ReadReq.accesses::cpu.inst      4352384                       # number of ReadReq accesses(hits+misses) (Count)
system.cpu.icache.ReadReq.accesses::total      4352384                       # number of ReadReq accesses(hits+misses) (Count)
system.cpu.icache.ReadReq.missRate::cpu.inst     0.000099                       # miss rate for ReadReq accesses (Ratio)
system.cpu.icache.ReadReq.missRate::total     0.000099                       # miss rate for ReadReq accesses (Ratio)
system.cpu.icache.ReadReq.avgMissLatency::cpu.inst 203072.261072                       # average ReadReq miss latency ((Tick/Count))
system.cpu.icache.ReadReq.avgMissLatency::total 203072.261072                       # average ReadReq miss latency ((Tick/Count))
system.cpu.icache.ReadReq.mshrMisses::cpu.inst          429                       # number of ReadReq MSHR misses (Count)
system.cpu.icache.ReadReq.mshrMisses::total          429                       # number of ReadReq MSHR misses (Count)
system.cpu.icache.ReadReq.mshrMissLatency::cpu.inst     85402000                       # number of ReadReq MSHR miss ticks (Tick)
system.cpu.icache.ReadReq.mshrMissLatency::total     85402000                       # number of ReadReq MSHR miss ticks (Tick)
system.cpu.icache.ReadReq.mshrMissRate::cpu.inst     0.000099                       # mshr miss rate for ReadReq accesses (Ratio)
system.cpu.icache.ReadReq.mshrMissRate::total     0.000099                       # mshr miss rate for ReadReq accesses (Ratio)
system.cpu.icache.ReadReq.avgMshrMissLatency::cpu.inst 199072.261072                       # average ReadReq mshr miss latency ((Tick/Count))
system.cpu.icache.ReadReq.avgMshrMissLatency::total 199072.261072                       # average ReadReq mshr miss latency ((Tick/Count))
system.cpu.icache.power_state.pwrStateResidencyTicks::UNDEFINED  68231162000                       # Cumulative time (in ticks) in various power states (Tick)
system.cpu.icache.tags.tagsInUse           246.451110                       # Average ticks per tags in use ((Tick/Count))
system.cpu.icache.tags.totalRefs              4352384                       # Total number of references to valid blocks. (Count)
system.cpu.icache.tags.sampledRefs                429                       # Sample count of references to valid blocks. (Count)
system.cpu.icache.tags.avgRefs           10145.417249                       # Average number of references to valid blocks. ((Count/Count))
system.cpu.icache.tags.warmupTick              206000                       # The tick when the warmup percentage was hit. (Tick)
system.cpu.icache.tags.occupancies::cpu.inst   246.451110                       # Average occupied blocks per tick, per requestor ((Count/Tick))
system.cpu.icache.tags.avgOccs::cpu.inst     0.481350                       # Average percentage of cache occupancy ((Ratio/Tick))
system.cpu.icache.tags.avgOccs::total        0.481350                       # Average percentage of cache occupancy ((Ratio/Tick))
system.cpu.icache.tags.occupanciesTaskId::1024          342                       # Occupied blocks per task id (Count)
system.cpu.icache.tags.ageTaskId_1024::0           27                       # Occupied blocks per task id, per block age (Count)
system.cpu.icache.tags.ageTaskId_1024::1          110                       # Occupied blocks per task id, per block age (Count)
system.cpu.icache.tags.ageTaskId_1024::4          205                       # Occupied blocks per task id, per block age (Count)
system.cpu.icache.tags.ratioOccsTaskId::1024     0.667969                       # Ratio of occupied blocks and all blocks, per task id (Ratio)
system.cpu.icache.tags.tagAccesses            8705197                       # Number of tag accesses (Count)
system.cpu.icache.tags.dataAccesses           8705197                       # Number of data accesses (Count)
system.cpu.icache.tags.power_state.pwrStateResidencyTicks::UNDEFINED  68231162000                       # Cumulative time (in ticks) in various power states (Tick)
system.cpu.mmu.dtb.readHits                         0                       # read hits (Count)
system.cpu.mmu.dtb.readMisses                       0                       # read misses (Count)
system.cpu.mmu.dtb.readAccesses                     0                       # read accesses (Count)
system.cpu.mmu.dtb.writeHits                        0                       # write hits (Count)
system.cpu.mmu.dtb.writeMisses                      0                       # write misses (Count)
system.cpu.mmu.dtb.writeAccesses                    0                       # write accesses (Count)
system.cpu.mmu.dtb.hits                             0                       # Total TLB (read and write) hits (Count)
system.cpu.mmu.dtb.misses                           0                       # Total TLB (read and write) misses (Count)
system.cpu.mmu.dtb.accesses                         0                       # Total TLB (read and write) accesses (Count)
system.cpu.mmu.dtb.walker.num_4kb_walks             0                       # Completed page walks with 4KB pages (Count)
system.cpu.mmu.dtb.walker.num_2mb_walks             0                       # Completed page walks with 2MB pages (Count)
system.cpu.mmu.dtb.walker.power_state.pwrStateResidencyTicks::UNDEFINED  68231162000                       # Cumulative time (in ticks) in various power states (Tick)
system.cpu.mmu.itb.readHits                         0                       # read hits (Count)
system.cpu.mmu.itb.readMisses                       0                       # read misses (Count)
system.cpu.mmu.itb.readAccesses                     0                       # read accesses (Count)
system.cpu.mmu.itb.writeHits                        0                       # write hits (Count)
system.cpu.mmu.itb.writeMisses                      0                       # write misses (Count)
system.cpu.mmu.itb.writeAccesses                    0                       # write accesses (Count)
system.cpu.mmu.itb.hits                             0                       # Total TLB (read and write) hits (Count)
system.cpu.mmu.itb.misses                           0                       # Total TLB (read and write) misses (Count)
system.cpu.mmu.itb.accesses                         0                       # Total TLB (read and write) accesses (Count)
system.cpu.mmu.itb.walker.num_4kb_walks             0                       # Completed page walks with 4KB pages (Count)
system.cpu.mmu.itb.walker.num_2mb_walks             0                       # Completed page walks with 2MB pages (Count)
system.cpu.mmu.itb.walker.power_state.pwrStateResidencyTicks::UNDEFINED  68231162000                       # Cumulative time (in ticks) in various power states (Tick)
system.cpu.power_state.pwrStateResidencyTicks::ON  68231162000                       # Cumulative time (in ticks) in various power states (Tick)
system.cpu.thread_0.numInsts                        0                       # Number of Instructions committed (Count)
system.cpu.thread_0.numOps                          0                       # Number of Ops committed (Count)
system.cpu.thread_0.numMemRefs                      0                       # Number of Memory References (Count)
system.cpu.workload.numSyscalls                    18                       # Number of system calls (Count)
system.l2.demandHits::cpu.inst                     16                       # number of demand (read+write) hits (Count)
system.l2.demandHits::cpu.data                     26                       # number of demand (read+write) hits (Count)
system.l2.demandHits::total                        42                       # number of demand (read+write) hits (Count)
system.l2.overallHits::cpu.inst                    16                       # number of overall hits (Count)
system.l2.overallHits::cpu.data                    26                       # number of overall hits (Count)
system.l2.overallHits::total                       42                       # number of overall hits (Count)
system.l2.demandMisses::cpu.inst                  413                       # number of demand (read+write) misses (Count)
system.l2.demandMisses::cpu.data               525206                       # number of demand (read+write) misses (Count)
system.l2.demandMisses::total                  525619                       # number of demand (read+write) misses (Count)
system.l2.overallMisses::cpu.inst                 413                       # number of overall misses (Count)
system.l2.overallMisses::cpu.data              525206                       # number of overall misses (Count)
system.l2.overallMisses::total                 525619                       # number of overall misses (Count)
system.l2.demandMissLatency::cpu.inst        83013000                       # number of demand (read+write) miss ticks (Tick)
system.l2.demandMissLatency::cpu.data     45921886000                       # number of demand (read+write) miss ticks (Tick)
system.l2.demandMissLatency::total        46004899000                       # number of demand (read+write) miss ticks (Tick)
system.l2.overallMissLatency::cpu.inst       83013000                       # number of overall miss ticks (Tick)
system.l2.overallMissLatency::cpu.data    45921886000                       # number of overall miss ticks (Tick)
system.l2.overallMissLatency::total       46004899000                       # number of overall miss ticks (Tick)
system.l2.demandAccesses::cpu.inst                429                       # number of demand (read+write) accesses (Count)
system.l2.demandAccesses::cpu.data             525232                       # number of demand (read+write) accesses (Count)
system.l2.demandAccesses::total                525661                       # number of demand (read+write) accesses (Count)
system.l2.overallAccesses::cpu.inst               429                       # number of overall (read+write) accesses (Count)
system.l2.overallAccesses::cpu.data            525232                       # number of overall (read+write) accesses (Count)
system.l2.overallAccesses::total               525661                       # number of overall (read+write) accesses (Count)
system.l2.demandMissRate::cpu.inst           0.962704                       # miss rate for demand accesses (Ratio)
system.l2.demandMissRate::cpu.data           0.999950                       # miss rate for demand accesses (Ratio)
system.l2.demandMissRate::total              0.999920                       # miss rate for demand accesses (Ratio)
system.l2.overallMissRate::cpu.inst          0.962704                       # miss rate for overall accesses (Ratio)
system.l2.overallMissRate::cpu.data          0.999950                       # miss rate for overall accesses (Ratio)
system.l2.overallMissRate::total             0.999920                       # miss rate for overall accesses (Ratio)
system.l2.demandAvgMissLatency::cpu.inst       201000                       # average overall miss latency in ticks ((Tick/Count))
system.l2.demandAvgMissLatency::cpu.data 87435.950846                       # average overall miss latency in ticks ((Tick/Count))
system.l2.demandAvgMissLatency::total    87525.182689                       # average overall miss latency in ticks ((Tick/Count))
system.l2.overallAvgMissLatency::cpu.inst       201000                       # average overall miss latency ((Tick/Count))
system.l2.overallAvgMissLatency::cpu.data 87435.950846                       # average overall miss latency ((Tick/Count))
system.l2.overallAvgMissLatency::total   87525.182689                       # average overall miss latency ((Tick/Count))
system.l2.blockedCycles::no_mshrs                   0                       # number of cycles access was blocked (Cycle)
system.l2.blockedCycles::no_targets                 0                       # number of cycles access was blocked (Cycle)
system.l2.blockedCauses::no_mshrs                   0                       # number of times access was blocked (Count)
system.l2.blockedCauses::no_targets                 0                       # number of times access was blocked (Count)
system.l2.avgBlocked::no_mshrs                    nan                       # average number of cycles each access was blocked ((Cycle/Count))
system.l2.avgBlocked::no_targets                  nan                       # average number of cycles each access was blocked ((Cycle/Count))
system.l2.writebacks::writebacks               520613                       # number of writebacks (Count)
system.l2.writebacks::total                    520613                       # number of writebacks (Count)
system.l2.demandMshrMisses::cpu.inst              413                       # number of demand (read+write) MSHR misses (Count)
system.l2.demandMshrMisses::cpu.data           525206                       # number of demand (read+write) MSHR misses (Count)
system.l2.demandMshrMisses::total              525619                       # number of demand (read+write) MSHR misses (Count)
system.l2.overallMshrMisses::cpu.inst             413                       # number of overall MSHR misses (Count)
system.l2.overallMshrMisses::cpu.data          525206                       # number of overall MSHR misses (Count)
system.l2.overallMshrMisses::total             525619                       # number of overall MSHR misses (Count)
system.l2.demandMshrMissLatency::cpu.inst     77231000                       # number of demand (read+write) MSHR miss ticks (Tick)
system.l2.demandMshrMissLatency::cpu.data  38569002000                       # number of demand (read+write) MSHR miss ticks (Tick)
system.l2.demandMshrMissLatency::total    38646233000                       # number of demand (read+write) MSHR miss ticks (Tick)
system.l2.overallMshrMissLatency::cpu.inst     77231000                       # number of overall MSHR miss ticks (Tick)
system.l2.overallMshrMissLatency::cpu.data  38569002000                       # number of overall MSHR miss ticks (Tick)
system.l2.overallMshrMissLatency::total   38646233000                       # number of overall MSHR miss ticks (Tick)
system.l2.demandMshrMissRate::cpu.inst       0.962704                       # mshr miss ratio for demand accesses (Ratio)
system.l2.demandMshrMissRate::cpu.data       0.999950                       # mshr miss ratio for demand accesses (Ratio)
system.l2.demandMshrMissRate::total          0.999920                       # mshr miss ratio for demand accesses (Ratio)
system.l2.overallMshrMissRate::cpu.inst      0.962704                       # mshr miss ratio for overall accesses (Ratio)
system.l2.overallMshrMissRate::cpu.data      0.999950                       # mshr miss ratio for overall accesses (Ratio)
system.l2.overallMshrMissRate::total         0.999920                       # mshr miss ratio for overall accesses (Ratio)
system.l2.demandAvgMshrMissLatency::cpu.inst       187000                       # average overall mshr miss latency ((Tick/Count))
system.l2.demandAvgMshrMissLatency::cpu.data 73435.950846                       # average overall mshr miss latency ((Tick/Count))
system.l2.demandAvgMshrMissLatency::total 73525.182689                       # average overall mshr miss latency ((Tick/Count))
system.l2.overallAvgMshrMissLatency::cpu.inst       187000                       # average overall mshr miss latency ((Tick/Count))
system.l2.overallAvgMshrMissLatency::cpu.data 73435.950846                       # average overall mshr miss latency ((Tick/Count))
system.l2.overallAvgMshrMissLatency::total 73525.182689                       # average overall mshr miss latency ((Tick/Count))
system.l2.replacements                         521565                       # number of replacements (Count)
system.l2.ReadCleanReq.hits::cpu.inst              16                       # number of ReadCleanReq hits (Count)
system.l2.ReadCleanReq.hits::total                 16                       # number of ReadCleanReq hits (Count)
system.l2.ReadCleanReq.misses::cpu.inst           413                       # number of ReadCleanReq misses (Count)
system.l2.ReadCleanReq.misses::total              413                       # number of ReadCleanReq misses (Count)
system.l2.ReadCleanReq.missLatency::cpu.inst     83013000                       # number of ReadCleanReq miss ticks (Tick)
system.l2.ReadCleanReq.missLatency::total     83013000                       # number of ReadCleanReq miss ticks (Tick)
system.l2.ReadCleanReq.accesses::cpu.inst          429                       # number of ReadCleanReq accesses(hits+misses) (Count)
system.l2.ReadCleanReq.accesses::total            429                       # number of ReadCleanReq accesses(hits+misses) (Count)
system.l2.ReadCleanReq.missRate::cpu.inst     0.962704                       # miss rate for ReadCleanReq accesses (Ratio)
system.l2.ReadCleanReq.missRate::total       0.962704                       # miss rate for ReadCleanReq accesses (Ratio)
system.l2.ReadCleanReq.avgMissLatency::cpu.inst       201000                       # average ReadCleanReq miss latency ((Tick/Count))
system.l2.ReadCleanReq.avgMissLatency::total       201000                       # average ReadCleanReq miss latency ((Tick/Count))
system.l2.ReadCleanReq.mshrMisses::cpu.inst          413                       # number of ReadCleanReq MSHR misses (Count)
system.l2.ReadCleanReq.mshrMisses::total          413                       # number of ReadCleanReq MSHR misses (Count)
system.l2.ReadCleanReq.mshrMissLatency::cpu.inst     77231000                       # number of ReadCleanReq MSHR miss ticks (Tick)
system.l2.ReadCleanReq.mshrMissLatency::total     77231000                       # number of ReadCleanReq MSHR miss ticks (Tick)
system.l2.ReadCleanReq.mshrMissRate::cpu.inst     0.962704                       # mshr miss rate for ReadCleanReq accesses (Ratio)
system.l2.ReadCleanReq.mshrMissRate::total     0.962704                       # mshr miss rate for ReadCleanReq accesses (Ratio)
system.l2.ReadCleanReq.avgMshrMissLatency::cpu.inst       187000                       # average ReadCleanReq mshr miss latency ((Tick/Count))
system.l2.ReadCleanReq.avgMshrMissLatency::total       187000                       # average ReadCleanReq mshr miss latency ((Tick/Count))
system.l2.ReadExReq.hits::cpu.data                  2                       # number of ReadExReq hits (Count)
system.l2.ReadExReq.hits::total                     2                       # number of ReadExReq hits (Count)
system.l2.ReadExReq.misses::cpu.data           262317                       # number of ReadExReq misses (Count)
system.l2.ReadExReq.misses::total              262317                       # number of ReadExReq misses (Count)
system.l2.ReadExReq.missLatency::cpu.data  27164857000                       # number of ReadExReq miss ticks (Tick)
system.l2.ReadExReq.missLatency::total    27164857000                       # number of ReadExReq miss ticks (Tick)
system.l2.ReadExReq.accesses::cpu.data         262319                       # number of ReadExReq accesses(hits+misses) (Count)
system.l2.ReadExReq.accesses::total            262319                       # number of ReadExReq accesses(hits+misses) (Count)
system.l2.ReadExReq.missRate::cpu.data       0.999992                       # miss rate for ReadExReq accesses (Ratio)
system.l2.ReadExReq.missRate::total          0.999992                       # miss rate for ReadExReq accesses (Ratio)
system.l2.ReadExReq.avgMissLatency::cpu.data 103557.363800                       # average ReadExReq miss latency ((Tick/Count))
system.l2.ReadExReq.avgMissLatency::total 103557.363800                       # average ReadExReq miss latency ((Tick/Count))
system.l2.ReadExReq.mshrMisses::cpu.data       262317                       # number of ReadExReq MSHR misses (Count)
system.l2.ReadExReq.mshrMisses::total          262317                       # number of ReadExReq MSHR misses (Count)
system.l2.ReadExReq.mshrMissLatency::cpu.data  23492419000                       # number of ReadExReq MSHR miss ticks (Tick)
system.l2.ReadExReq.mshrMissLatency::total  23492419000                       # number of ReadExReq MSHR miss ticks (Tick)
system.l2.ReadExReq.mshrMissRate::cpu.data     0.999992                       # mshr miss rate for ReadExReq accesses (Ratio)
system.l2.ReadExReq.mshrMissRate::total      0.999992                       # mshr miss rate for ReadExReq accesses (Ratio)
system.l2.ReadExReq.avgMshrMissLatency::cpu.data 89557.363800                       # average ReadExReq mshr miss latency ((Tick/Count))
system.l2.ReadExReq.avgMshrMissLatency::total 89557.363800                       # average ReadExReq mshr miss latency ((Tick/Count))
system.l2.ReadSharedReq.hits::cpu.data             24                       # number of ReadSharedReq hits (Count)
system.l2.ReadSharedReq.hits::total                24                       # number of ReadSharedReq hits (Count)
system.l2.ReadSharedReq.misses::cpu.data       262889                       # number of ReadSharedReq misses (Count)
system.l2.ReadSharedReq.misses::total          262889                       # number of ReadSharedReq misses (Count)
system.l2.ReadSharedReq.missLatency::cpu.data  18757029000                       # number of ReadSharedReq miss ticks (Tick)
system.l2.ReadSharedReq.missLatency::total  18757029000                       # number of ReadSharedReq miss ticks (Tick)
system.l2.ReadSharedReq.accesses::cpu.data       262913                       # number of ReadSharedReq accesses(hits+misses) (Count)
system.l2.ReadSharedReq.accesses::total        262913                       # number of ReadSharedReq accesses(hits+misses) (Count)
system.l2.ReadSharedReq.missRate::cpu.data     0.999909                       # miss rate for ReadSharedReq accesses (Ratio)
system.l2.ReadSharedReq.missRate::total      0.999909                       # miss rate for ReadSharedReq accesses (Ratio)
system.l2.ReadSharedReq.avgMissLatency::cpu.data 71349.615237                       # average ReadSharedReq miss latency ((Tick/Count))
system.l2.ReadSharedReq.avgMissLatency::total 71349.615237                       # average ReadSharedReq miss latency ((Tick/Count))
system.l2.ReadSharedReq.mshrMisses::cpu.data       262889                       # number of ReadSharedReq MSHR misses (Count)
system.l2.ReadSharedReq.mshrMisses::total       262889                       # number of ReadSharedReq MSHR misses (Count)
system.l2.ReadSharedReq.mshrMissLatency::cpu.data  15076583000                       # number of ReadSharedReq MSHR miss ticks (Tick)
system.l2.ReadSharedReq.mshrMissLatency::total  15076583000                       # number of ReadSharedReq MSHR miss ticks (Tick)
system.l2.ReadSharedReq.mshrMissRate::cpu.data     0.999909                       # mshr miss rate for ReadSharedReq accesses (Ratio)
system.l2.ReadSharedReq.mshrMissRate::total     0.999909                       # mshr miss rate for ReadSharedReq accesses (Ratio)
system.l2.ReadSharedReq.avgMshrMissLatency::cpu.data 57349.615237                       # average ReadSharedReq mshr miss latency ((Tick/Count))
system.l2.ReadSharedReq.avgMshrMissLatency::total 57349.615237                       # average ReadSharedReq mshr miss latency ((Tick/Count))
system.l2.SCUpgradeReq.hits::cpu.data               3                       # number of SCUpgradeReq hits (Count)
system.l2.SCUpgradeReq.hits::total                  3                       # number of SCUpgradeReq hits (Count)
system.l2.SCUpgradeReq.accesses::cpu.data            3                       # number of SCUpgradeReq accesses(hits+misses) (Count)
system.l2.SCUpgradeReq.accesses::total              3                       # number of SCUpgradeReq accesses(hits+misses) (Count)
system.l2.UpgradeReq.hits::cpu.data                13                       # number of UpgradeReq hits (Count)
system.l2.UpgradeReq.hits::total                   13                       # number of UpgradeReq hits (Count)
system.l2.UpgradeReq.accesses::cpu.data            13                       # number of UpgradeReq accesses(hits+misses) (Count)
system.l2.UpgradeReq.accesses::total               13                       # number of UpgradeReq accesses(hits+misses) (Count)
system.l2.WritebackClean.hits::writebacks           87                       # number of WritebackClean hits (Count)
system.l2.WritebackClean.hits::total               87                       # number of WritebackClean hits (Count)
system.l2.WritebackClean.accesses::writebacks           87                       # number of WritebackClean accesses(hits+misses) (Count)
system.l2.WritebackClean.accesses::total           87                       # number of WritebackClean accesses(hits+misses) (Count)
system.l2.WritebackDirty.hits::writebacks       262317                       # number of WritebackDirty hits (Count)
system.l2.WritebackDirty.hits::total           262317                       # number of WritebackDirty hits (Count)
system.l2.WritebackDirty.accesses::writebacks       262317                       # number of WritebackDirty accesses(hits+misses) (Count)
system.l2.WritebackDirty.accesses::total       262317                       # number of WritebackDirty accesses(hits+misses) (Count)
system.l2.power_state.pwrStateResidencyTicks::UNDEFINED  68231162000                       # Cumulative time (in ticks) in various power states (Tick)
system.l2.tags.tagsInUse                  4033.394066                       # Average ticks per tags in use ((Tick/Count))
system.l2.tags.totalRefs                      1050483                       # Total number of references to valid blocks. (Count)
system.l2.tags.sampledRefs                     525661                       # Sample count of references to valid blocks. (Count)
system.l2.tags.avgRefs                       1.998404                       # Average number of references to valid blocks. ((Count/Count))
system.l2.tags.warmupTick                      191000                       # The tick when the warmup percentage was hit. (Tick)
system.l2.tags.occupancies::writebacks       0.018887                       # Average occupied blocks per tick, per requestor ((Count/Tick))
system.l2.tags.occupancies::cpu.inst         5.887183                       # Average occupied blocks per tick, per requestor ((Count/Tick))
system.l2.tags.occupancies::cpu.data      4027.487995                       # Average occupied blocks per tick, per requestor ((Count/Tick))
system.l2.tags.avgOccs::writebacks           0.000005                       # Average percentage of cache occupancy ((Ratio/Tick))
system.l2.tags.avgOccs::cpu.inst             0.001437                       # Average percentage of cache occupancy ((Ratio/Tick))
system.l2.tags.avgOccs::cpu.data             0.983273                       # Average percentage of cache occupancy ((Ratio/Tick))
system.l2.tags.avgOccs::total                0.984715                       # Average percentage of cache occupancy ((Ratio/Tick))
system.l2.tags.occupanciesTaskId::1024           4096                       # Occupied blocks per task id (Count)
system.l2.tags.ageTaskId_1024::0                   42                       # Occupied blocks per task id, per block age (Count)
system.l2.tags.ageTaskId_1024::1                  489                       # Occupied blocks per task id, per block age (Count)
system.l2.tags.ageTaskId_1024::2                 3565                       # Occupied blocks per task id, per block age (Count)
system.l2.tags.ratioOccsTaskId::1024                1                       # Ratio of occupied blocks and all blocks, per task id (Ratio)
system.l2.tags.tagAccesses                    8929525                       # Number of tag accesses (Count)
system.l2.tags.dataAccesses                   8929525                       # Number of data accesses (Count)
system.l2.tags.power_state.pwrStateResidencyTicks::UNDEFINED  68231162000                       # Cumulative time (in ticks) in various power states (Tick)
system.l2bus.transDist::ReadResp               263342                       # Transaction distribution (Count)
system.l2bus.transDist::WritebackDirty         782930                       # Transaction distribution (Count)
system.l2bus.transDist::WritebackClean             87                       # Transaction distribution (Count)
system.l2bus.transDist::CleanEvict             263355                       # Transaction distribution (Count)
system.l2bus.transDist::UpgradeReq                 13                       # Transaction distribution (Count)
system.l2bus.transDist::SCUpgradeReq                3                       # Transaction distribution (Count)
system.l2bus.transDist::UpgradeResp                16                       # Transaction distribution (Count)
system.l2bus.transDist::ReadExReq              262319                       # Transaction distribution (Count)
system.l2bus.transDist::ReadExResp             262319                       # Transaction distribution (Count)
system.l2bus.transDist::ReadCleanReq              429                       # Transaction distribution (Count)
system.l2bus.transDist::ReadSharedReq          262913                       # Transaction distribution (Count)
system.l2bus.pktCount_system.cpu.icache.mem_side_port::system.l2.cpu_side_port          945                       # Packet count per connected requestor and responder (Count)
system.l2bus.pktCount_system.cpu.dcache.mem_side_port::system.l2.cpu_side_port      1575216                       # Packet count per connected requestor and responder (Count)
system.l2bus.pktCount::total                  1576161                       # Packet count per connected requestor and responder (Count)
system.l2bus.pktSize_system.cpu.icache.mem_side_port::system.l2.cpu_side_port        33024                       # Cumulative packet size per connected requestor and responder (Byte)
system.l2bus.pktSize_system.cpu.dcache.mem_side_port::system.l2.cpu_side_port     50403136                       # Cumulative packet size per connected requestor and responder (Byte)
system.l2bus.pktSize::total                  50436160                       # Cumulative packet size per connected requestor and responder (Byte)
system.l2bus.snoops                            521565                       # Total snoops (Count)
system.l2bus.snoopTraffic                    33319232                       # Total snoop traffic (Byte)
system.l2bus.snoopFanout::samples             1047242                       # Request fanout histogram (Count)
system.l2bus.snoopFanout::mean               0.000237                       # Request fanout histogram (Count)
system.l2bus.snoopFanout::stdev              0.015387                       # Request fanout histogram (Count)
system.l2bus.snoopFanout::underflows                0      0.00%      0.00% # Request fanout histogram (Count)
system.l2bus.snoopFanout::0                   1046994     99.98%     99.98% # Request fanout histogram (Count)
system.l2bus.snoopFanout::1                       248      0.02%    100.00% # Request fanout histogram (Count)
system.l2bus.snoopFanout::2                         0      0.00%    100.00% # Request fanout histogram (Count)
system.l2bus.snoopFanout::overflows                 0      0.00%    100.00% # Request fanout histogram (Count)
system.l2bus.snoopFanout::min_value                 0                       # Request fanout histogram (Count)
system.l2bus.snoopFanout::max_value                 1                       # Request fanout histogram (Count)
system.l2bus.snoopFanout::total               1047242                       # Request fanout histogram (Count)
system.l2bus.power_state.pwrStateResidencyTicks::UNDEFINED  68231162000                       # Cumulative time (in ticks) in various power states (Tick)
system.l2bus.reqLayer0.occupancy           1575292000                       # Layer occupancy (ticks) (Tick)
system.l2bus.reqLayer0.utilization                0.0                       # Layer utilization (Ratio)
system.l2bus.respLayer0.occupancy             1287000                       # Layer occupancy (ticks) (Tick)
system.l2bus.respLayer0.utilization               0.0                       # Layer utilization (Ratio)
system.l2bus.respLayer1.occupancy          1575712000                       # Layer occupancy (ticks) (Tick)
system.l2bus.respLayer1.utilization               0.0                       # Layer utilization (Ratio)
system.l2bus.snoop_filter.totRequests         1050484                       # Total number of requests made to the snoop filter. (Count)
system.l2bus.snoop_filter.hitSingleRequests       524823                       # Number of requests hitting in the snoop filter with a single holder of the requested data. (Count)
system.l2bus.snoop_filter.hitMultiRequests            1                       # Number of requests hitting in the snoop filter with multiple (>1) holders of the requested data. (Count)
system.l2bus.snoop_filter.totSnoops               247                       # Total number of snoops made to the snoop filter. (Count)
system.l2bus.snoop_filter.hitSingleSnoops          247                       # Number of snoops hitting in the snoop filter with a single holder of the requested data. (Count)
[...]
system.l3.overallAvgMshrMissLatency::cpu.data       151000                       # average overall mshr miss latency ((Tick/Count))
system.l3.overallAvgMshrMissLatency::total       151000                       # average overall mshr miss latency ((Tick/Count))
system.l3.replacements                              0                       # number of replacements (Count)
system.l3.ReadExReq.hits::cpu.data             196622                       # number of ReadExReq hits (Count)
system.l3.ReadExReq.hits::total                196622                       # number of ReadExReq hits (Count)
system.l3.ReadExReq.misses::cpu.data            65695                       # number of ReadExReq misses (Count)
system.l3.ReadExReq.misses::total               65695                       # number of ReadExReq misses (Count)
system.l3.ReadExReq.missLatency::cpu.data  11233845000                       # number of ReadExReq miss ticks (Tick)
system.l3.ReadExReq.missLatency::total    11233845000                       # number of ReadExReq miss ticks (Tick)
system.l3.ReadExReq.accesses::cpu.data         262317                       # number of ReadExReq accesses(hits+misses) (Count)
system.l3.ReadExReq.accesses::total            262317                       # number of ReadExReq accesses(hits+misses) (Count)
system.l3.ReadExReq.missRate::cpu.data       0.250441                       # miss rate for ReadExReq accesses (Ratio)
system.l3.ReadExReq.missRate::total          0.250441                       # miss rate for ReadExReq accesses (Ratio)
system.l3.ReadExReq.avgMissLatency::cpu.data       171000                       # average ReadExReq miss latency ((Tick/Count))
system.l3.ReadExReq.avgMissLatency::total       171000                       # average ReadExReq miss latency ((Tick/Count))
system.l3.ReadExReq.mshrMisses::cpu.data        65695                       # number of ReadExReq MSHR misses (Count)
system.l3.ReadExReq.mshrMisses::total           65695                       # number of ReadExReq MSHR misses (Count)
system.l3.ReadExReq.mshrMissLatency::cpu.data   9919945000                       # number of ReadExReq MSHR miss ticks (Tick)
system.l3.ReadExReq.mshrMissLatency::total   9919945000                       # number of ReadExReq MSHR miss ticks (Tick)
system.l3.ReadExReq.mshrMissRate::cpu.data     0.250441                       # mshr miss rate for ReadExReq accesses (Ratio)
system.l3.ReadExReq.mshrMissRate::total      0.250441                       # mshr miss rate for ReadExReq accesses (Ratio)
system.l3.ReadExReq.avgMshrMissLatency::cpu.data       151000                       # average ReadExReq mshr miss latency ((Tick/Count))
system.l3.ReadExReq.avgMshrMissLatency::total       151000                       # average ReadExReq mshr miss latency ((Tick/Count))
system.l3.ReadSharedReq.hits::cpu.data         262182                       # number of ReadSharedReq hits (Count)
system.l3.ReadSharedReq.hits::total            262182                       # number of ReadSharedReq hits (Count)
system.l3.ReadSharedReq.misses::cpu.inst          413                       # number of ReadSharedReq misses (Count)
system.l3.ReadSharedReq.misses::cpu.data          707                       # number of ReadSharedReq misses (Count)
system.l3.ReadSharedReq.misses::total            1120                       # number of ReadSharedReq misses (Count)
system.l3.ReadSharedReq.missLatency::cpu.inst     70623000                       # number of ReadSharedReq miss ticks (Tick)
system.l3.ReadSharedReq.missLatency::cpu.data    120897000                       # number of ReadSharedReq miss ticks (Tick)
system.l3.ReadSharedReq.missLatency::total    191520000                       # number of ReadSharedReq miss ticks (Tick)
system.l3.ReadSharedReq.accesses::cpu.inst          413                       # number of ReadSharedReq accesses(hits+misses) (Count)
system.l3.ReadSharedReq.accesses::cpu.data       262889                       # number of ReadSharedReq accesses(hits+misses) (Count)
system.l3.ReadSharedReq.accesses::total        263302                       # number of ReadSharedReq accesses(hits+misses) (Count)
system.l3.ReadSharedReq.missRate::cpu.inst            1                       # miss rate for ReadSharedReq accesses (Ratio)
system.l3.ReadSharedReq.missRate::cpu.data     0.002689                       # miss rate for ReadSharedReq accesses (Ratio)
system.l3.ReadSharedReq.missRate::total      0.004254                       # miss rate for ReadSharedReq accesses (Ratio)
system.l3.ReadSharedReq.avgMissLatency::cpu.inst       171000                       # average ReadSharedReq miss latency ((Tick/Count))
system.l3.ReadSharedReq.avgMissLatency::cpu.data       171000                       # average ReadSharedReq miss latency ((Tick/Count))
system.l3.ReadSharedReq.avgMissLatency::total       171000                       # average ReadSharedReq miss latency ((Tick/Count))
system.l3.ReadSharedReq.mshrMisses::cpu.inst          413                       # number of ReadSharedReq MSHR misses (Count)
system.l3.ReadSharedReq.mshrMisses::cpu.data          707                       # number of ReadSharedReq MSHR misses (Count)
system.l3.ReadSharedReq.mshrMisses::total         1120                       # number of ReadSharedReq MSHR misses (Count)
system.l3.ReadSharedReq.mshrMissLatency::cpu.inst     62363000                       # number of ReadSharedReq MSHR miss ticks (Tick)
system.l3.ReadSharedReq.mshrMissLatency::cpu.data    106757000                       # number of ReadSharedReq MSHR miss ticks (Tick)
system.l3.ReadSharedReq.mshrMissLatency::total    169120000                       # number of ReadSharedReq MSHR miss ticks (Tick)
system.l3.ReadSharedReq.mshrMissRate::cpu.inst            1                       # mshr miss rate for ReadSharedReq accesses (Ratio)
system.l3.ReadSharedReq.mshrMissRate::cpu.data     0.002689                       # mshr miss rate for ReadSharedReq accesses (Ratio)
system.l3.ReadSharedReq.mshrMissRate::total     0.004254                       # mshr miss rate for ReadSharedReq accesses (Ratio)
system.l3.ReadSharedReq.avgMshrMissLatency::cpu.inst       151000                       # average ReadSharedReq mshr miss latency ((Tick/Count))
system.l3.ReadSharedReq.avgMshrMissLatency::cpu.data       151000                       # average ReadSharedReq mshr miss latency ((Tick/Count))
system.l3.ReadSharedReq.avgMshrMissLatency::total       151000                       # average ReadSharedReq mshr miss latency ((Tick/Count))
system.l3.WritebackDirty.hits::writebacks       520613                       # number of WritebackDirty hits (Count)
system.l3.WritebackDirty.hits::total           520613                       # number of WritebackDirty hits (Count)
system.l3.WritebackDirty.accesses::writebacks       520613                       # number of WritebackDirty accesses(hits+misses) (Count)
system.l3.WritebackDirty.accesses::total       520613                       # number of WritebackDirty accesses(hits+misses) (Count)
system.l3.power_state.pwrStateResidencyTicks::UNDEFINED  68231162000                       # Cumulative time (in ticks) in various power states (Tick)
system.l3.tags.tagsInUse                 57889.569026                       # Average ticks per tags in use ((Tick/Count))
system.l3.tags.totalRefs                      1046937                       # Total number of references to valid blocks. (Count)
system.l3.tags.sampledRefs                      66815                       # Sample count of references to valid blocks. (Count)
system.l3.tags.avgRefs                      15.669191                       # Average number of references to valid blocks. ((Count/Count))
system.l3.tags.warmupTick                      170000                       # The tick when the warmup percentage was hit. (Tick)
system.l3.tags.occupancies::cpu.inst       271.347850                       # Average occupied blocks per tick, per requestor ((Count/Tick))
system.l3.tags.occupancies::cpu.data     57618.221176                       # Average occupied blocks per tick, per requestor ((Count/Tick))
system.l3.tags.avgOccs::cpu.inst             0.001035                       # Average percentage of cache occupancy ((Ratio/Tick))
system.l3.tags.avgOccs::cpu.data             0.219796                       # Average percentage of cache occupancy ((Ratio/Tick))
system.l3.tags.avgOccs::total                0.220831                       # Average percentage of cache occupancy ((Ratio/Tick))
system.l3.tags.occupanciesTaskId::1024          66815                       # Occupied blocks per task id (Count)
system.l3.tags.ageTaskId_1024::0                   31                       # Occupied blocks per task id, per block age (Count)
system.l3.tags.ageTaskId_1024::1                  142                       # Occupied blocks per task id, per block age (Count)
system.l3.tags.ageTaskId_1024::4                66642                       # Occupied blocks per task id, per block age (Count)
system.l3.tags.ratioOccsTaskId::1024         0.254879                       # Ratio of occupied blocks and all blocks, per task id (Ratio)
system.l3.tags.tagAccesses                   16817807                       # Number of tag accesses (Count)
system.l3.tags.dataAccesses                  16817807                       # Number of data accesses (Count)
system.l3.tags.power_state.pwrStateResidencyTicks::UNDEFINED  68231162000                       # Cumulative time (in ticks) in various power states (Tick)
system.l3bus.transDist::ReadResp               263302                       # Transaction distribution (Count)
system.l3bus.transDist::WritebackDirty         520613                       # Transaction distribution (Count)
system.l3bus.transDist::CleanEvict                705                       # Transaction distribution (Count)
system.l3bus.transDist::ReadExReq              262317                       # Transaction distribution (Count)
system.l3bus.transDist::ReadExResp             262317                       # Transaction distribution (Count)
system.l3bus.transDist::ReadSharedReq          263302                       # Transaction distribution (Count)
system.l3bus.pktCount_system.l2.mem_side_port::system.l3.cpu_side_port      1572556                       # Packet count per connected requestor and responder (Count)
system.l3bus.pktSize_system.l2.mem_side_port::system.l3.cpu_side_port     66958848                       # Cumulative packet size per connected requestor and responder (Byte)
system.l3bus.snoops                                 0                       # Total snoops (Count)
system.l3bus.snoopTraffic                           0                       # Total snoop traffic (Byte)
system.l3bus.snoopFanout::samples              525619                       # Request fanout histogram (Count)
system.l3bus.snoopFanout::mean                      0                       # Request fanout histogram (Count)
system.l3bus.snoopFanout::stdev                     0                       # Request fanout histogram (Count)
system.l3bus.snoopFanout::underflows                0      0.00%      0.00% # Request fanout histogram (Count)
system.l3bus.snoopFanout::0                    525619    100.00%    100.00% # Request fanout histogram (Count)
system.l3bus.snoopFanout::1                         0      0.00%    100.00% # Request fanout histogram (Count)
system.l3bus.snoopFanout::overflows                 0      0.00%    100.00% # Request fanout histogram (Count)
system.l3bus.snoopFanout::min_value                 0                       # Request fanout histogram (Count)
system.l3bus.snoopFanout::max_value                 0                       # Request fanout histogram (Count)
system.l3bus.snoopFanout::total                525619                       # Request fanout histogram (Count)
system.l3bus.power_state.pwrStateResidencyTicks::UNDEFINED  68231162000                       # Cumulative time (in ticks) in various power states (Tick)
system.l3bus.reqLayer0.occupancy           1567550000                       # Layer occupancy (ticks) (Tick)
system.l3bus.reqLayer0.utilization                0.0                       # Layer utilization (Ratio)
system.l3bus.respLayer0.occupancy          1051238000                       # Layer occupancy (ticks) (Tick)
system.l3bus.respLayer0.utilization               0.0                       # Layer utilization (Ratio)
system.l3bus.snoop_filter.totRequests         1046937                       # Total number of requests made to the snoop filter. (Count)
system.l3bus.snoop_filter.hitSingleRequests       521318                       # Number of requests hitting in the snoop filter with a single holder of the requested data. (Count)
system.l3bus.snoop_filter.hitMultiRequests            0                       # Number of requests hitting in the snoop filter with multiple (>1) holders of the requested data. (Count)
system.l3bus.snoop_filter.totSnoops                 0                       # Total number of snoops made to the snoop filter. (Count)
system.l3bus.snoop_filter.hitSingleSnoops            0                       # Number of snoops hitting in the snoop filter with a single holder of the requested data. (Count)
system.l3bus.snoop_filter.hitMultiSnoops            0                       # Number of snoops hitting in the snoop filter with multiple (>1) holders of the requested data. (Count)
system.mem_ctrl.bytesRead::cpu.inst             26432                       # Number of bytes read from this memory (Byte)
system.mem_ctrl.bytesRead::cpu.data           4249728                       # Number of bytes read from this memory (Byte)
system.mem_ctrl.bytesRead::total              4276160                       # Number of bytes read from this memory (Byte)
system.mem_ctrl.bytesInstRead::cpu.inst         26432                       # Number of instructions bytes read from this memory (Byte)
system.mem_ctrl.bytesInstRead::total            26432                       # Number of instructions bytes read from this memory (Byte)
system.mem_ctrl.numReads::cpu.inst                413                       # Number of read requests responded to by this memory (Count)
system.mem_ctrl.numReads::cpu.data              66402                       # Number of read requests responded to by this memory (Count)
system.mem_ctrl.numReads::total                 66815                       # Number of read requests responded to by this memory (Count)
system.mem_ctrl.bwRead::cpu.inst               387389                       # Total read bandwidth from this memory ((Byte/Second))
system.mem_ctrl.bwRead::cpu.data             62284268                       # Total read bandwidth from this memory ((Byte/Second))
system.mem_ctrl.bwRead::total                62671657                       # Total read bandwidth from this memory ((Byte/Second))
system.mem_ctrl.bwInstRead::cpu.inst           387389                       # Instruction read bandwidth from this memory ((Byte/Second))
system.mem_ctrl.bwInstRead::total              387389                       # Instruction read bandwidth from this memory ((Byte/Second))
system.mem_ctrl.bwTotal::cpu.inst              387389                       # Total bandwidth to/from this memory ((Byte/Second))
system.mem_ctrl.bwTotal::cpu.data            62284268                       # Total bandwidth to/from this memory ((Byte/Second))
system.mem_ctrl.bwTotal::total               62671657                       # Total bandwidth to/from this memory ((Byte/Second))
system.mem_ctrl.power_state.pwrStateResidencyTicks::UNDEFINED  68231162000                       # Cumulative time (in ticks) in various power states (Tick)
system.membus.transDist::ReadResp                1120                       # Transaction distribution (Count)
system.membus.transDist::ReadExReq              65695                       # Transaction distribution (Count)
system.membus.transDist::ReadExResp             65695                       # Transaction distribution (Count)
system.membus.transDist::ReadSharedReq           1120                       # Transaction distribution (Count)
system.membus.pktCount_system.l3.mem_side_port::system.mem_ctrl.port       133630                       # Packet count per connected requestor and responder (Count)
system.membus.pktCount::total                  133630                       # Packet count per connected requestor and responder (Count)
system.membus.pktSize_system.l3.mem_side_port::system.mem_ctrl.port      4276160                       # Cumulative packet size per connected requestor and responder (Byte)
system.membus.pktSize::total                  4276160                       # Cumulative packet size per connected requestor and responder (Byte)
system.membus.snoops                                0                       # Total snoops (Count)
system.membus.snoopTraffic                          0                       # Total snoop traffic (Byte)
system.membus.snoopFanout::samples              66815                       # Request fanout histogram (Count)
system.membus.snoopFanout::mean                     0                       # Request fanout histogram (Count)
system.membus.snoopFanout::stdev                    0                       # Request fanout histogram (Count)
system.membus.snoopFanout::underflows               0      0.00%      0.00% # Request fanout histogram (Count)
system.membus.snoopFanout::0                    66815    100.00%    100.00% # Request fanout histogram (Count)
system.membus.snoopFanout::1                        0      0.00%    100.00% # Request fanout histogram (Count)
system.membus.snoopFanout::overflows                0      0.00%    100.00% # Request fanout histogram (Count)
system.membus.snoopFanout::min_value                0                       # Request fanout histogram (Count)
system.membus.snoopFanout::max_value                0                       # Request fanout histogram (Count)
system.membus.snoopFanout::total                66815                       # Request fanout histogram (Count)
system.membus.power_state.pwrStateResidencyTicks::UNDEFINED  68231162000                       # Cumulative time (in ticks) in various power states (Tick)
system.membus.reqLayer0.occupancy            66815000                       # Layer occupancy (ticks) (Tick)
system.membus.reqLayer0.utilization               0.0                       # Layer utilization (Ratio)
system.membus.respLayer0.occupancy          334075000                       # Layer occupancy (ticks) (Tick)
system.membus.respLayer0.utilization              0.0                       # Layer utilization (Ratio)
system.membus.snoop_filter.totRequests          66815                       # Total number of requests made to the snoop filter. (Count)
system.membus.snoop_filter.hitSingleRequests            0                       # Number of requests hitting in the snoop filter with a single holder of the requested data. (Count)
system.membus.snoop_filter.hitMultiRequests            0                       # Number of requests hitting in the snoop filter with multiple (>1) holders of the requested data. (Count)
system.membus.snoop_filter.totSnoops                0                       # Total number of snoops made to the snoop filter. (Count)
system.membus.snoop_filter.hitSingleSnoops            0                       # Number of snoops hitting in the snoop filter with a single holder of the requested data. (Count)
system.membus.snoop_filter.hitMultiSnoops            0                       # Number of snoops hitting in the snoop filter with multiple (>1) holders of the requested data. (Count)
system.workload.inst.arm                            0                       # number of arm instructions executed (Count)
system.workload.inst.quiesce                        0                       # number of quiesce instructions executed (Count)

---------- End Simulation Statistics   ----------
